61
CSD_code = MASBIT | q = 1 | S = 0 | Stoichiometry = C27H24ClN8Pd(1+) | MND = 4
Pd        6.23333015976697    9.62905369798196    6.13534689144423
C         6.26059143494822    9.10767924683661    8.07226968143801
C         6.92520875803080    8.84712445746323   10.19079398181175
C         7.59441235326053    8.82916941813332   11.40541790863108
H         8.57547543991848    9.26040524911332   11.52210450656079
C         6.95176376586334    8.22831641366809   12.47078375912478
H         7.44126597525853    8.19573434395188   13.43084835955543
C         5.68503498726359    7.66234438597073   12.33581285002593
H         5.21998231560425    7.20640515521093   13.19502265951683
C         5.01187475203487    7.67154947735342   11.12925236871157
H         4.03106210526364    7.23346459592123   11.03886453078944
C         5.65040973322300    8.26865379906445   10.05258027077853
C         4.01291113549082    8.07480117482381    8.14769236786778
H         3.33766015531107    8.94418069337245    8.17685343156850
H         3.57122861598488    7.27787235507542    8.75009195033249
C         4.14189206536420    7.60636103818703    6.72954506087016
C         3.48478302714236    6.59917815496985    6.05332933315341
H         2.73484849100698    5.90434874002602    6.36679919637551
C         3.56851480687054    5.88756421079880    3.64109408288193
H         3.20819212756110    4.90670848660172    3.95496033570917
H         4.44670271333679    5.77486216689134    3.00035306840713
C         2.48901907837001    6.65755822450778    2.90906045196103
C         2.76930899372890    7.93214539726062    2.43133629890325
H         3.75108030179279    8.35932189711601    2.57926929367567
C         1.78980994927500    8.65140616296962    1.77064364289360
H         2.01253487824018    9.63974757091709    1.39991425883946
C         0.53154365863621    8.10254902006068    1.58295875974251
H        -0.23054478946285    8.66322633723980    1.06409548265240
C         0.25168022721322    6.83361976436413    2.05987208421637
H        -0.72673684212194    6.40233598772077    1.91446599566338
C         1.22695065120177    6.11248411880113    2.72828455606482
H         1.00655887048844    5.12100894756225    3.09719271379550
C         8.51750577128045    9.97662305835819    8.59881663963150
H         9.18711642558017    9.21158752718835    8.17565781776490
H         8.97850547820323   10.36963022149760    9.50777864334862
C         8.36107148948205   11.08885242188444    7.60590619068768
C         9.01996508229649   12.29652961291013    7.50084558599744
H         9.78974791641418   12.74027903738670    8.09582652734972
C         8.89116229715556   14.11369127317845    5.76445050636481
H         9.28815317098713   14.80308402203281    6.51115495474567
H         7.99757936387139   14.54016667916499    5.30147062938928
C         9.92577632160008   13.80526480217667    4.70168172726700
C        11.18594240768381   14.38170913633974    4.75067411815000
H        11.43734211706640   15.06913603767994    5.54558660040991
C        12.11901353884393   14.08867105906642    3.77008072202901
H        13.09557913749240   14.54627150926456    3.80759704905216
C        11.79962099033428   13.21120135906706    2.74836180059854
H        12.52893883643758   12.98287281234527    1.98653860417473
C        10.54357670200553   12.62804334631796    2.70342053290194
H        10.28977414130317   11.94412748006226    1.90863271652343
C         9.60557038668590   12.92385359324422    3.67601422034722
H         8.62518300933432   12.46998320571109    3.64103053400060
Cl        6.20253241270129   10.20725569388283    3.98829882811492
N         4.97598691209220    8.18149959877354    5.82691600125760
N         7.49523295602179   11.04237327574775    6.56215451912368
N         7.57663806496393   12.12495912453666    5.87237099911215
N         8.49107676325832   12.89097345053077    6.41248832518014
N         7.25414538408215    9.35756895221761    8.94851527896607
N         5.28742186231037    8.44631390566457    8.73026836011160
N         4.87791843709751    7.58436443498079    4.69186890683090
N         3.98317272757586    6.63453267882075    4.80118252662215

