54
CSD_code = MASBEQ | q = 0 | S = 0 | Stoichiometry = C25H22N2NiO4 | MND = 4
Ni       13.05823383441108    5.97375203905591   12.04718755024212
O        11.25327648847430    5.66405663557641   11.81735967586034
O        13.06330679631406    6.68994665549852   10.33942497479462
O         5.14780310991776    4.62282538161654   10.75102129285664
O        14.53773324480518    8.85832475421407    6.39008774832095
N        13.02411294550541    5.36194404997566   13.81705619181765
N        14.88441760784217    6.23117453368510   12.26776002937228
C         4.73649490408847    5.14551366034889    9.51074080965462
H         5.32147503049730    4.72824835150505    8.68497367837205
H         4.80715084172408    6.23779744025216    9.49162902553390
H         3.69433826863315    4.85086792045030    9.39790597860269
C         6.42679778331135    4.83763606944483   11.15715264624230
C         6.77481947717389    4.27987568343865   12.39062074767968
H         6.02517739029289    3.71610827116872   12.92342448122485
C         8.04096765766936    4.44310453139069   12.90449744430450
H         8.28911483582862    3.98221798551089   13.84785546252539
C         9.00252456662085    5.16899326758725   12.20003741675550
C         8.65505813874505    5.70434848310037   10.96164225203947
H         9.40595611984235    6.25135583454451   10.41203760330744
C         7.38485226547052    5.55152499728603   10.44251366471015
H         7.15212511119406    5.98852439080219    9.48413912685569
C        10.38199222385913    5.37574627123553   12.69166658422442
C        10.65370864547637    5.31195528605642   14.06571672849965
H         9.82957320468937    5.26547605869098   14.75746918380192
C        11.94123864121575    5.36024364176758   14.59409691513298
C        12.02732165092629    5.47135126782842   16.09572930085325
H        11.89443167101929    4.50065557993557   16.57108572901203
H        11.22406561493878    6.11821088999314   16.44337251397446
H        12.97846053380069    5.89417187236602   16.40867818169128
C        14.31525580862541    5.12986011147229   14.27780036196149
C        14.66453173490505    4.35379038588559   15.38355115346209
H        13.91009627194249    3.82796995263673   15.94362158031778
C        15.99284585442724    4.19722153028985   15.73211927497378
H        16.24946850934187    3.59295058159627   16.58923563333595
C        16.99264607940045    4.79362166331823   14.98102217349086
H        18.02745634524876    4.67304211294203   15.26312167899481
C        16.67438361870300    5.50052543551935   13.83636238038541
H        17.47661931554217    5.89353820818196   13.23166499129296
C        15.34373239731391    5.65434702350885   13.45654128221900
C        15.69625159998367    6.84609686225097   11.44367197540190
H        16.74018200550057    6.96533040281014   11.72698411342421
C        15.34918497467112    7.36720309102826   10.18571544542964
C        14.01332863379358    7.23091670887325    9.67927331473309
C        13.74351598538350    7.73001275207460    8.37976094895287
H        12.73335415512767    7.60717883914181    8.02415358030348
C        14.71694587626330    8.34501073174144    7.63204851272390
C        16.02855760125755    8.48388795689888    8.14797739908747
H        16.76661346072082    8.97156334286761    7.53261822968254
C        16.32437714394956    8.00441484490040    9.38588603408054
H        17.32620620773532    8.10650914743948    9.77856588617088
C        13.26233923701649    8.76610832269956    5.80122025167223
H        13.35295524282150    9.23720897695380    4.82370563579944
H        12.51058928390177    9.29712389760132    6.39313096063723
H        12.95493405212644    7.72341531306544    5.67616426318782

