47
CSD_code = MASBAM | q = 0 | S = 0 | Stoichiometry = C20H20Cl2N4Ni | MND = 6
Ni        7.90159459292343   11.85220896274809   10.54692524674721
Cl        9.39308128782271   13.34455302800002   10.54663335871678
N         8.98441900941297   10.76793060217960    9.01389680280296
C         9.09312928367433    9.44356632728861    9.05767912097327
H         8.59136095297193    8.94556101306422    9.87669309460118
C         9.78612607941867    8.70948032211265    8.10906823915802
H         9.84344382777178    7.63546016335425    8.19491833855024
C        10.39315971641137    9.37769822078366    7.05908173910427
H        10.94059837419889    8.83773399866125    6.29989649216991
C        10.27922077228274   10.75680926359832    7.00842599422375
H        10.73335812141453   11.32564081586720    6.21195550317060
C         9.56991123344649   11.40644115627314    8.00534705946387
H         9.48254661189402   12.48480778758319    8.00201928303841
Cl        6.40902264261208   10.36047777889026   10.54657757605123
N         8.98557647643463   10.76933758986613   12.07966519972233
C        10.30993476240026   10.66058062975235   12.03585880891991
H        10.80795629975686   11.16232298975224   11.21684079236998
C        11.04400522166281    9.96758587673678   12.98448111304165
H        12.11802089530413    9.91021612381225   12.89860598790775
C        10.37578561203329    9.36059867881071   14.03449295038950
H        10.91573912627679    8.81313534150706   14.79366804005405
C         8.99668106793852    9.47460403619824   14.08517476713461
H         8.42784138808236    9.02049127931179   14.88165352468683
C         8.34705474337418   10.18391964441865   13.08825483578324
H         7.26869414763124   10.27134154048022   13.09162374514166
N         6.81865719669024   12.93623381354896    9.01418576934330
C         6.70991260805740   14.26060179609184    9.05796449305649
H         7.21165246798254   14.75862888561290    9.87697999349694
C         6.01691272928930   14.99467456437467    8.10933809476556
H         5.95954582771655   16.06869199797923    8.19520574500187
C         5.40991457768123   14.32645697246802    7.05933146502839
H         4.86245297064443   14.86641112440967    6.30015402872673
C         5.52390939839323   12.94735178840772    7.00866215274702
H         5.06979393590492   12.37851302931220    6.21218308038130
C         6.23321780271405   12.29772172292571    8.00559390257740
H         6.32063394684277   11.21936126985699    8.00222007213275
N         6.81724011084840   12.93513731197993   12.07985156208278
C         5.49287094799488   13.04382970835692   12.03607134831795
H         4.99486854857147   12.54205581091282   11.21705840672161
C         4.75877255476164   13.73682908133800   12.98467508804936
H         3.68475158505487   13.79413893677575   12.89882236709931
C         5.42697968889990   14.34387748547369   14.03466048186639
H         4.88700893932192   14.89131669265311   14.79384155339429
C         6.80609098719702   14.22994892652945   14.08532220874127
H         7.37491453843480   14.68409399417041   14.88179363474562
C         7.45573501593792   13.52064056763960   13.08840651316382
H         8.53410137390961   13.43328134812548   13.09174042463513

