61
CSD_code = MASBOZ | q = 1 | S = 0 | Stoichiometry = C27H24ClN8Pt(1+) | MND = 4
Pt        2.77697395107299   -1.78574578897822    5.77650975557287
C         2.74665610596935   -1.25972169990544    3.85207664041857
C         3.35407030719177   -0.41552383196200    1.87523482261039
C         3.99083691674143    0.18591126822578    0.80006881621166
H         4.96772815653170    0.63199974599421    0.89319257144143
C         3.32139691900663    0.18822756012105   -0.40870652708116
H         3.78546764913386    0.64691289912760   -1.26698538529092
C         2.05991417757376   -0.38827782238201   -0.54681273277812
H         1.57305970743567   -0.36098374624528   -1.50837672373066
C         1.41908972517387   -0.99333054396633    0.51742226076937
H         0.44201764997100   -1.43280790241032    0.39834685280024
C         2.08490091902099   -1.00477550283407    1.73385631102193
C         0.50008700773766   -2.14591710650738    3.31947476344400
H         0.04504288590658   -2.54132628014862    2.40867913702891
H        -0.17703328297551   -1.38765157887619    3.74035763810442
C         0.66060980796410   -3.25759061253005    4.30918616487123
C         0.00336149301272   -4.46548745156720    4.40686697411114
H        -0.76471045648695   -4.90659555992693    3.80780328359320
C         0.13407547965099   -6.29574196406420    6.12793714191761
H         1.02678702137209   -6.71979491704680    6.59453425420414
H        -0.25191439257800   -6.98144324696837    5.37217996794880
C        -0.91152490660422   -6.00402750610995    7.18429260157494
C        -2.17021466690147   -6.58154030818407    7.11582146709913
H        -2.41308006796193   -7.25852330035440    6.30948280821252
C        -3.11272315839541   -6.30315169803055    8.09162715529082
H        -4.08810017086851   -6.76172996706818    8.03913686128651
C        -2.80433654147861   -5.43915650260529    9.12796556602492
H        -3.54093389903934   -5.22231208249409    9.88606483552399
C        -1.54982427087892   -4.85462076772018    9.19236281062163
H        -1.30483779091274   -4.18093222177313    9.99851430721877
C        -0.60264284021697   -5.13618161223715    8.22462026936760
H         0.37675234834585   -4.68213541297643    8.27355447221173
C         4.98410645213560   -0.20775425302134    3.77927181460998
H         5.41324068354062    0.60023351820232    3.18257148078475
H         5.67091126397985   -1.06638902175615    3.73907235967502
C         4.85735068797397    0.24735213314021    5.19979088201714
C         5.52153792664110    1.24793736891138    5.87672473780436
H         6.27119452966322    1.94214464109803    5.56132317177653
C         5.45488695223829    1.95146116627827    8.29067770199386
H         4.58444961460391    2.05197209502101    8.94375089146470
H         5.80136049898722    2.93753281168079    7.97749241764437
C         6.55207497096837    1.18863803444244    9.00330540339134
C         7.81294477609898    1.74234946198673    9.16500396411411
H         8.02016909863505    2.73620614939964    8.79496099618112
C         8.80390590061665    1.02688807881603    9.81624993624686
H         9.78129720843299    1.46500828284891    9.94720358725849
C         8.54096655709304   -0.24500596141363   10.29485502561681
H         9.31519520829408   -0.80127318394183   10.80030009122037
C         7.28387786836098   -0.80264246859213   10.12614331333882
H         7.07453185122840   -1.79351415857944   10.49801235338329
C         6.28902542242230   -0.08884183327377    9.48286339038039
H         5.30781780412440   -0.52148953675526    9.34949232530917
Cl        2.81291431452841   -2.37603096331175    7.92939473844253
N         1.52600557433210   -3.21548176253677    5.35532450357394
N         4.02594069840475   -0.33048506382732    6.10533118410226
N         4.13628039638550    0.26188424269687    7.24344877189842
N         5.03140597239936    1.20758243939587    7.13178380486839
N         3.71518661519278   -0.58964095069611    3.19748448285062
N         1.75732450644475   -1.51765984275246    2.97434588708040
N         1.44199808761265   -4.30363519132461    6.03877437234656
N         0.53114677514646   -5.06527076972921    5.49265726900180

