94
CSD_code = MASDIW | q = 0 | S = 0 | Stoichiometry = C45H42ClN4PPd | MND = 4
Pd        8.57809351174423    3.83693418796232    7.63031316305656
Cl        8.27274027888148    2.69659500634976    5.57912635656352
P         6.38692225284327    4.40551900175666    7.64230350113057
C         6.02650641476040    6.06048653601659    6.81475979556274
H         4.94689801895449    6.17347914402211    6.68545030492569
H         6.38920840306387    6.85728492202888    7.47582290174325
N         6.64059171506964    6.18749926350897    5.52210620400998
H         6.08523053042783    5.78301003730802    4.78015217401185
C         8.00464881681624    6.02996070937116    5.34695088971299
C         8.89094258767684    6.23271240473328    6.39759880543936
H         8.54825220601268    6.67053921344387    7.32918760362069
C        10.27079644906788    5.99887251277989    6.23759250479075
H        10.92958322662712    6.18596736073602    7.07904647596672
C        10.76939397327206    5.58805647333068    5.03175015182229
H        11.82330370210278    5.38504601015140    4.90404429258666
C         9.91508627451263    5.45938057124894    3.91606754723940
C        10.42842048420442    5.10528147338127    2.65191644319268
H        11.48635412337787    4.89878422736303    2.56790027603964
C         9.61805177754216    5.03610762531484    1.55442776173944
H        10.02262329746904    4.76644210084242    0.58974984525152
C         8.25470013577238    5.32907026790642    1.67664898576749
H         7.61923168923517    5.29777236917548    0.80452212991240
C         7.72058718516926    5.64879951395557    2.89510784657542
H         6.66712247675558    5.88127125451606    2.94743917252568
C         8.52268418664559    5.70736039859428    4.05226391426463
C         5.21178832823344    3.23925968250697    6.73665585955771
H         5.47408586777322    2.24005108867148    7.11526067422502
H         4.19250812842570    3.47256040918219    7.05458854891158
N         5.30611745106594    3.21613733809956    5.31864363930857
H         6.20627720183119    2.87090978885219    4.99203795699735
C         4.54337158233287    3.94305598146218    4.44600861698652
C         3.49071719884210    4.74492826427673    4.85581542504526
H         3.22775019466570    4.82205933296411    5.89881475737226
C         2.72159768975436    5.46636117901023    3.94065656466790
H         1.91995354081065    6.08544929323613    4.31820625761876
C         2.98026659843563    5.39778068239615    2.60123908441953
H         2.39191988907882    5.95958456676444    1.89129664950892
C         4.01580446944666    4.56622232712797    2.12533600729386
C         4.26959520431910    4.44780541385446    0.74276108594363
H         3.65953217414727    5.02260280309675    0.05986119090202
C         5.25065662413532    3.62222145237541    0.27210482604331
H         5.42977852932713    3.53349122699753   -0.79004451312681
C         6.03058290614312    2.88484856699985    1.17156835850172
H         6.80687280565271    2.23444056175955    0.79674542917050
C         5.82051769792204    2.98808319809601    2.52015321204781
H         6.44846986153665    2.41241330108013    3.18204793171447
C         4.81130259611661    3.82433681939748    3.03955482034655
C         5.42336885961446    4.51901917768791    9.26688374449795
H         5.07722095939284    3.50384520253425    9.47543057671768
H         6.11782795254057    4.79510391736570   10.06440203022697
N         4.32359157024640    5.43752102438580    9.27165278380867
H         4.61187587589673    6.40067575927026    9.19733065272983
C         3.08223788749034    5.16986793405008    8.71695727437947
C         2.51326111613196    3.91628910869962    8.83737577760972
H         3.03960773373069    3.13536806249124    9.36466129392852
C         1.25955461797767    3.62837459431785    8.29434460041162
H         0.85868435785990    2.63211787820829    8.40707312096987
C         0.55350134041895    4.58903854873523    7.62681859775442
H        -0.40919960968778    4.36828558491647    7.19185427878649
C         1.07711065372664    5.89063670202532    7.49823004599387
C         0.35844866093536    6.89134370659474    6.81014205584904
H        -0.60585336819270    6.63304883217727    6.39640492436699
C         0.86139549767492    8.15227061719470    6.66510717049532
H         0.30558759734322    8.90919725681660    6.13201137852019
C         2.11102058144849    8.46820992250964    7.21360587461268
H         2.50699224189541    9.46640203927616    7.09885478078800
C         2.82995414911158    7.52222256784296    7.89125307334697
H         3.78450002722062    7.81501449019613    8.30703313504433
C         2.34882741596361    6.20506575804569    8.05339958034889
C        11.02851694911072    3.24885491219805    9.17681991343105
C        12.23035029800239    2.78864725906475    9.65044702201990
H        12.77507841612647    2.01136793817468    9.13558471902611
C        12.77577262926773    3.33440088008320   10.82118956029927
H        13.72123909423913    2.95750577787640   11.18240114802766
C        12.12884962759901    4.33471570476632   11.49056623468204
H        12.55984176800736    4.76563677013585   12.38280159532118
C        10.89883621372371    4.83969044308090   11.02265072998837
C        10.23105453297516    5.90908964631995   11.65152035149268
H        10.65510069364441    6.33835253950170   12.54771245593001
C         9.07825529499957    6.40459138292460   11.11265595159797
H         8.57790487320501    7.24394702139830   11.57589116974276
C         8.52002807560637    5.83191578206427    9.95674742085190
H         7.61141859021125    6.27925058595144    9.56680532831125
C         9.09431203791433    4.75412788445382    9.32940488768798
C        10.32670423025329    4.27200914243756    9.85218038648146
N        10.40039074729153    2.72761809344574    7.97999604941052
C        11.34434437260225    2.62061745308553    6.86776516671691
H        10.79359271333908    2.43884229550979    5.94271902627244
H        12.05463040664405    1.79810218299135    7.01201290097229
H        11.89381997142002    3.55677974277100    6.77067774770176
C         9.81733607144157    1.40811266840629    8.27671129989959
H         9.11098534432702    1.49627280020863    9.11340527091949
H        10.60094751506137    0.68807859199773    8.55054628869271
H         9.29083315631959    1.03501795147822    7.39219919231956

