37
CSD_code = MASDER | q = 0 | S = 0 | Stoichiometry = C17H15ClN2OPt | MND = 4
Pt        1.43747338511964    6.77076947542214    8.68246083657216
Cl        1.04270472471843    5.72995244950141    6.77011027813219
N         1.32756000605132    5.02490126469335    9.89488674695104
C         1.08175761581827    3.78504320914714    9.49931529538930
H         0.97464240536527    3.64802537003731    8.43044909763828
C         0.96652006120718    2.73172064475527   10.38900432746977
H         0.76655001299075    1.73496969097650   10.03109541307174
C         1.11216651049459    2.99413373748143   11.74506853085760
H         1.02568585343191    2.20036288886392   12.47175820686274
C         1.36917588696502    4.28808137867750   12.15719142042049
H         1.48026554667100    4.50344281412427   13.20715779674829
C         1.47664349585102    5.30161191104687   11.20198791205988
C         1.75069799802886    6.70442010794224   11.51462313442520
C         1.98320685989832    7.15650171601644   12.81335671310552
H         1.96352112430041    6.46318665561406   13.63796378178699
C         2.24267463452729    8.49174320169775   13.04791566288629
H         2.42275691785156    8.84982523666628   14.04923860221210
C         2.26741151257730    9.35879824936172   11.96025679996053
H         2.46719877691144   10.40976987608414   12.09083558861941
C         2.03247452349698    8.85599762616850   10.69899855610930
H         2.04535097841863    9.50397031191176    9.83322425305407
N         1.77636651324894    7.56305689962487   10.46080445800730
C         1.53751057335803    8.48826955277295    7.65317219569716
C         0.43617232532011    9.32959064440980    7.54452730461456
H        -0.50903133043454    9.04423458188989    7.99520030225362
C         0.50262680319109   10.53747300577466    6.86343036050671
H        -0.38131288495822   11.15418534260095    6.80300895891026
C         1.69353253520310   10.92904554968998    6.26787167015292
C         2.80536172885002   10.09373038535592    6.36177490245152
H         3.72220878307783   10.40577170491656    5.88561361871671
C         2.72320479305447    8.89348898843968    7.03954299518566
H         3.59948137712884    8.25575294541864    7.08398127345799
O         1.88148514713790   12.09898586150927    5.57836835560668
C         0.77955363932757   12.95104103951205    5.40302378385353
H         1.14400762107954   13.78871851198159    4.80972332680816
H         0.40141983794978   13.32620064569464    6.36079200169122
H        -0.03362629322753   12.45372652422339    4.86366553775654

