63
CSD_code = MASFIW | q = 0 | S = 0 | Stoichiometry = C23H35CoO2P2 | MND = 6
Co        6.10478217206608    0.61160333885941   12.13273491271029
P         7.51593038438368    2.21955335667998   12.71356482771366
P         4.71409869374017   -0.90950268525820   11.29060850470091
O         5.97437060510848    1.60224765743568   10.36937848163159
O         4.52296518406466    1.71000947852151   12.73369076185809
C         5.23064612658799    2.56196125410578   10.04078334278854
C         4.09877282143583    3.00425290975700   10.76619096486420
C         3.85187493454373    2.51580540149152   12.05833201976430
C         6.75225805919483    3.83604967805788   13.13421526698790
C         8.69157418536173    2.75473170390721   11.41068875477463
C         8.66542579616979    2.04037719556853   14.13385522555065
C         2.93049725909304   -0.47228577254926   11.23116764880297
C         4.57890363882626   -2.61216018594830   11.97033302797363
C         4.99685076824303   -1.29776295902888    9.51967241112576
C         7.62871091989033   -0.47927495997573   11.50760589265456
C         6.21566132201426   -0.21141650147389   13.92079467820384
C         5.63346166515423    3.29513522801760    8.80462743324617
C         5.62658934426607    4.68586477891360    8.74634892013180
C         6.05866797532001    5.33609192040854    7.60583148693734
C         6.50400688801513    4.60986362581790    6.51323972586547
C         6.53737124610180    3.22679289437094    6.57301620033079
C         6.11589942867289    2.57441229620130    7.71628128661956
C         3.13746793197725    3.94846595823469   10.18180977707220
C         2.67006102712256    3.77198707038997    8.87892951517571
C         1.75198732317820    4.64597645427596    8.33137768330410
C         1.26941635946937    5.70950829407326    9.07657612411234
C         1.71391887533165    5.88945734498813   10.37509957116977
C         2.63885232619134    5.01960824617597   10.92208873517578
H         2.93944479937375    2.91075785150350   12.54075996046370
H         6.06805341257769    3.69841695428603   13.96903446940609
H         6.18773791683197    4.20125300174360   12.27821439285442
H         7.51966749090111    4.56212210454075   13.40185057781321
H         9.37199463363599    1.93779306519255   11.18510699771667
H         9.25780758566460    3.62278743177218   11.74690429396900
H         8.13961151504336    3.00386551536863   10.50746523847286
H         9.29224008457260    1.16477500342177   13.98499605314391
H         8.09043128566528    1.90603072669493   15.04633962691461
H         9.29379872706130    2.92527450374897   14.22376412942168
H         2.79373655870138    0.42394161517610   10.62871455190561
H         2.58292298806466   -0.26640724753835   12.24144823830599
H         2.35373346318179   -1.29221825994731   10.80356491054403
H         5.57109782979213   -3.04136004868597   12.08338310032025
H         3.98591457257849   -3.23586451077205   11.30328250638479
H         4.10137515146700   -2.57457165345184   12.94648374353310
H         4.99755829666357   -0.36957122054651    8.95394938668281
H         4.21390121985549   -1.95534896860159    9.14334405533011
H         5.96629640560304   -1.77577106672563    9.40601601082335
H         8.55184460940029   -0.29635921311900   12.05909265000263
H         7.80366583850676   -0.21147276836555   10.46590759110400
H         7.44327275003826   -1.55290800626011   11.55770691120744
H         5.84838829857547    0.52643414804788   14.63420289894716
H         7.22323938656499   -0.49740065568767   14.21374553812233
H         5.58627272315543   -1.09388490191063   14.01174036089938
H         5.29125080696085    5.25889650627073    9.59797272714532
H         6.04902013343765    6.41576023563857    7.56946834320447
H         6.83284905152939    5.12171271738679    5.62063151683798
H         6.89625079465159    2.65653003473613    5.72833828376189
H         6.15320856471056    1.49616974505974    7.77680085998278
H         3.03063814481421    2.93658467404471    8.29502005147845
H         1.40439115275969    4.49408080744221    7.31937981690414
H         0.55049371364639    6.39220361932554    8.64786141421847
H         1.34326979223269    6.71720819804676   10.96325777096748
H         2.99479704052164    5.18148703997620   11.93030784015177

