73
CSD_code = MASHOF | q = 0 | S = 0 | Stoichiometry = C23H44ClN4Ta | MND = 9
Ta        0.71172482814630    4.30427789352739    4.81458024740777
Cl       -1.37459418458495    3.35967095253316    4.57844639507512
N         0.18481410594454    6.01758204292016    4.91848285436829
C        -0.51601297777604    7.19700316996328    5.25671798789093
C        -1.31372352242500    6.91937016489655    6.54851875009960
H        -1.97112304798161    6.06897764462187    6.38179831574206
H        -1.90660426141655    7.78641293586662    6.82768400953147
H        -0.63067553907750    6.67701505707067    7.35964719179913
C         0.43046764191523    8.39099645484127    5.48450689394693
H         1.12050982166825    8.17495951711101    6.29516095490322
H        -0.14436706069326    9.27827767527021    5.73712467581068
H         1.00433278728724    8.59059464480208    4.58342955898702
C        -1.50440387869040    7.53764428535990    4.12381504105260
H        -2.09950204307361    6.65694053401897    3.89727855720538
H        -0.95957858773112    7.83130453680109    3.23092670529601
H        -2.15873196288014    8.35225682767896    4.42236022780669
N         2.61595504009805    4.17797303187779    5.65396668563399
N         1.39387146877494    2.36179417472985    5.96500657498447
C         2.55877423606610    2.91557594686844    6.11047477828459
N         3.66038426465837    2.25027509620394    6.64213244245947
C         3.66976231342695    1.76063851560704    7.99696970696782
H         4.03098409298760    0.72723045559554    8.03236974744061
H         2.66786577186595    1.80237889939813    8.41645699427484
H         4.33270969360491    2.37526077231689    8.62276618519764
C         4.95304222257540    2.35148290794979    6.01488191518530
H         5.68250012111063    2.88709952697441    6.63673676287301
H         4.85191044761973    2.86105737496774    5.05905829329148
H         5.34303463426289    1.34193373060307    5.83774240129313
C         3.48352562623586    5.13033708393328    6.32559266103044
H         4.43240237494647    4.66629670821141    6.62065799824530
C         3.77109800989180    6.29689821037150    5.39088730355755
H         2.82478788524397    6.71414634217893    5.05996167942683
H         4.32275699269666    5.94918634511084    4.52338841387260
H         4.35452512878096    7.05838188734142    5.90264209415596
C         2.77888957384570    5.62489272680951    7.59776916750114
H         1.82008146926488    6.06230339173975    7.32248896157401
H         3.38643085363089    6.37172335338972    8.10404979022988
H         2.60072598500583    4.79637285648566    8.28207737043861
C         1.10476995274885    0.97272935962207    6.24716155972357
H         2.00544125213600    0.45388959564990    6.60433416039565
C         0.62963273497752    0.27966861793868    4.97017063815924
H         0.40812228368925   -0.76582634533496    5.17355799342220
H         1.40464682272317    0.33305542836697    4.20907478680758
H        -0.26999926753115    0.76499946852681    4.60011125002237
C         0.00948106050791    0.90764850545980    7.31590213712614
H        -0.87594909338489    1.42874008285718    6.95628454986429
H         0.33595552734515    1.38290405944391    8.24011725379071
H        -0.24998377434765   -0.12677024600089    7.52814449940309
C         1.12422648808165    4.33420431707722    2.38283241814920
C         2.41273961628356    5.04697585197585    2.30740414346227
C         3.41223789585987    4.12680559973178    2.23047506640516
C         2.82458149617124    2.79806057335956    2.16775064655034
C         1.46719701569635    2.91447670709709    2.19356381038606
C        -0.06176313012355    4.89700689733289    1.63076868255928
H         0.13430567082409    4.84640257906289    0.55759994625908
H        -0.23201695837981    5.93431132489818    1.90463690266950
H        -0.96659839708718    4.33079215430929    1.84156792192216
C         2.48667864510509    6.53647655867637    2.20681965473444
H         3.48551204918862    6.90796950485637    2.41711562096533
H         1.78468008840862    6.98709613935672    2.90445303831429
H         2.21620870515379    6.84985025429642    1.19667592450346
C         4.88582778251837    4.35877421125398    2.14878260919933
H         5.40765055870453    3.86360294228246    2.96982654712099
H         5.11899347410460    5.42006560711165    2.18045870539932
H         5.28186414623809    3.95107145791324    1.21791548475533
C         3.64694694083383    1.55669824875030    2.05136589872373
H         4.31470915983313    1.45428557982500    2.90885199741536
H         4.26581437696854    1.59111252353396    1.15404951518275
H         3.01929973199349    0.67036142756105    1.99714606093816
C         0.43550086871867    1.87504233214775    1.88726826171276
H        -0.43287387164311    1.97062502719449    2.53664822333259
H         0.83507432819379    0.86818586574759    1.98020808897306
H         0.09233549426843    2.00178411217681    0.85769970679746

