118
CSD_code = MASKEZ | q = 1 | S = 0 | Stoichiometry = C45H69AgN2P(1+) | MND = 2
Ag        5.73791860693745    4.33045652758801    5.95066820891675
P         5.70296063375345    5.18066106619322    3.69641521606557
N         4.51108865063747    3.52156633938692    8.73074062864420
N         6.63860689352541    3.32550988621758    8.82326021200652
C         5.63359589334419    3.69150927368500    8.00562321327086
C         4.80709598007856    3.05594589862282    9.98226817678604
H         4.05091745846691    2.85570489334895   10.71268349237668
C         6.15580753528497    2.93176422167526   10.04076922377500
H         6.79728318079027    2.60229441024324   10.83160375217678
C         8.01334601686967    3.37508520707554    8.45124383463201
C         8.58080705816031    2.27882431012836    7.79658269659325
C         9.91481873474795    2.36380602263358    7.41942804663516
H        10.37875790204301    1.53660563507772    6.90691873082780
C        10.65689133775702    3.49688308116066    7.69133074939129
H        11.69200338141778    3.54618483322062    7.39025664409236
C        10.07931975640818    4.56853866008110    8.34500020690556
H        10.66987959786277    5.44739351652591    8.54648163870273
C         8.74961451628814    4.52716912996030    8.74251225592839
C         7.76757414974063    1.04939166336723    7.46467142093053
H         6.81365041144812    1.09469805661064    8.00012828031376
C         7.46626176968766    1.03835592689218    5.96382635385912
H         6.93153691741353    1.95743260931197    5.68461911184538
H         6.84827151808246    0.18184887217591    5.70703527619205
H         8.38767976637621    0.98806322393935    5.38929049388353
C         8.47546939403411   -0.23862445172159    7.88699511424490
H         7.80932276827568   -1.08734990483127    7.75243905951960
H         8.76335361859095   -0.18982998969268    8.93441457343068
H         9.36753355065916   -0.41402429714570    7.29299276115901
C         8.11060067560020    5.71868040033837    9.41717283324119
H         7.16295398561329    5.40949533515495    9.86986364145172
C         8.98587399725393    6.29491746759982   10.53057274779580
H         9.29357394615509    5.51186932540135   11.21944589769219
H         8.42697666840303    7.04283397195354   11.08777199579929
H         9.87555371462867    6.77212409344100   10.13029764479835
C         7.80616737556889    6.78345625495748    8.35955006630902
H         8.72247855215726    7.11308077933487    7.87625041506228
H         7.32570159405963    7.64399650023458    8.81762624950881
H         7.13809791080822    6.37416462046037    7.59476098306748
C         3.20333451812968    3.81121208473724    8.24350218476539
C         2.68462123965173    5.09706509321351    8.42154098406091
C         1.41115836332702    5.36055106828216    7.93401750008424
H         0.98564250647498    6.34390058424501    8.05346664807130
C         0.67829732278876    4.37670821651020    7.29858341321157
H        -0.31332416015639    4.59755576208645    6.93402188941559
C         1.20954600517860    3.11265934269357    7.12805184990140
H         0.62932920695774    2.35755319642032    6.62300900599424
C         2.47829582397064    2.80390810812534    7.60063013933149
C         3.49510868143108    6.19156020679086    9.07579888727382
H         4.37399961591800    5.75073459230593    9.55662148191458
C         2.70035996596651    6.93167835462580   10.15214836152228
H         1.88762301567702    7.50876700423039    9.72081696260430
H         3.35299052028229    7.61792789290868   10.68623119002126
H         2.28124310222179    6.22842233282597   10.86784251636473
C         3.98552541094095    7.15988505243901    7.99586474301503
H         3.14381575245658    7.63097876386270    7.49409840304223
H         4.58006641584569    6.61899602864371    7.24982169452282
H         4.60427374524209    7.93726980313783    8.43611813315990
C         3.07023175506695    1.43254164811801    7.37444252251089
H         3.95694611491550    1.31647550344429    8.00590833950298
C         3.51223327391010    1.32120860160916    5.91279760583036
H         4.23560022967818    2.11496468547362    5.67981538072576
H         2.65868013276647    1.42659930019654    5.24778542551412
H         3.97885402141069    0.35674501776774    5.73010123485173
C         2.09514793153886    0.31166597955187    7.73553604968303
H         1.70563127542056    0.45349886482643    8.74075869112329
H         2.60565629425572   -0.64740587262800    7.69673808240218
H         1.25889112651350    0.27407137343926    7.04369151048156
C         5.94640631799137    4.06290599893686    2.22845296914848
H         5.91964269970060    4.68570385604963    1.32457120632212
C         4.82661141714092    3.02194871585529    2.15749565418129
H         3.86031183763465    3.51037622993216    2.02170556834810
H         4.79959384965549    2.45930800386693    3.09764882748542
C         5.04846303280919    2.05014534903292    1.00083778063883
H         4.24008012029351    1.31710599988445    0.98546317980657
H         5.01938974404959    2.59822791955925    0.05655878885534
C         6.39308070623673    1.34673231188928    1.13646100940560
H         6.54555200383043    0.66872710421297    0.29621735935953
H         6.40574557832936    0.75377511057029    2.05399765590847
C         7.51113422401429    2.38061047402851    1.18114832932407
H         8.47735177517919    1.88638052482807    1.29687796507233
H         7.53045666977509    2.93374968864548    0.23932230155831
C         7.29926649319613    3.35620058134127    2.33546912395329
H         8.11013478703267    4.08516266694366    2.33078875634064
H         7.34264695110051    2.81104854963749    3.28507807399034
C         6.96160713939250    6.53847423007156    3.52830377724574
H         6.51451739581783    7.37357606509384    4.08635208230942
C         8.25987709705020    6.18377510483423    4.25876074028068
H         8.03515239324569    5.82324253279971    5.27347146589495
H         8.79288502723632    5.38582052102580    3.74071601525325
C         9.16056757609228    7.41367681899114    4.32379203246091
H         8.66478560912220    8.20037075684237    4.89760669835238
H        10.09212550938690    7.16187787940910    4.83376234435247
C         9.45897992134835    7.92131851172961    2.91482180622730
H        10.01420943603355    7.15754835881122    2.36561455527550
H        10.08482260744314    8.81288915693963    2.96835014302496
C         8.16658020975105    8.24258265039702    2.16859115963779
H         7.64489640301005    9.05596619588840    2.67871503534596
H         8.39705093079768    8.57799636877003    1.15630739318725
C         7.26011400287781    7.01367463483143    2.10810359763887
H         7.76842625731824    6.22797497254555    1.54631338037117
H         6.33381695032885    7.25973359486455    1.58246108922244
C         4.04317381028786    5.96591013092875    3.34555986625617
H         3.82523795184049    5.84786710331822    2.27615140113934
C         3.96425289968243    7.44958843808431    3.70561778574065
H         4.22863045953807    7.58512597245958    4.75928031610998
H         4.65942565184662    8.03091347957449    3.09781769434344
C         2.55179100359479    7.98417798444044    3.47092545503251
H         2.51767125181220    9.04111793147216    3.74068052987458
H         2.30871097460436    7.90461703186601    2.40900023422822
C         1.52407441766968    7.20407084778119    4.28282007691304
H         0.52373246932338    7.59026658130876    4.08404747474263
H         1.72725177201363    7.32793818050384    5.34910846327383
C         1.59543885293338    5.72404695691673    3.92785552480496
H         0.88632583634719    5.15627675386764    4.53227870635078
H         1.32934544896576    5.58679056086039    2.87742928471734
C         3.00373787910742    5.19490601277957    4.17021397672664
H         3.03952894968917    4.12874580616962    3.93666667686900
H         3.24446306979305    5.30545082807471    5.23823598834343

