35
CSD_code = MASKEY | q = 0 | S = 0 | Stoichiometry = C18H12ClN2ORh | MND = 5
Rh        1.39753166738798   -0.07662448025201    4.91229019307407
Cl        2.44026043214571   -1.99155105114822    5.36297752559761
O         2.27937296617482   -0.45332601849369    2.09443629191216
N         0.69855607893608   -0.04501020165853    6.81209756269082
N        -2.63553312854813    0.77471005443392    8.08547051372566
C         1.22044992355209   -0.58773104292655    7.89365687429419
H         2.22400172503006   -0.98293993632420    7.80530943110654
C         0.52120451788356   -0.69170630284382    9.10493228944028
H         1.01226538420452   -1.14628044391574    9.95089165623437
C        -0.77118620067858   -0.24645675502847    9.19459754751955
H        -1.35536592600108   -0.33703911702071   10.09640985427908
C        -3.13497187857517    1.30319939233759    7.00050858628021
H        -4.16758498609289    1.61993694591956    7.07099798870169
C        -2.42532252726536    1.49760672806765    5.80528220951684
H        -2.89536281224240    1.98255169394020    4.96424720353968
C        -1.10993449882804    1.08838783822713    5.74168682038575
C        -0.56375150876741    0.45420858036349    6.89059718554169
C        -1.35936967385227    0.34509702061059    8.05692677215946
C        -0.20355715525626    1.32223397201942    4.61735191919823
C         1.04069289315491    2.00309685100412    4.77671003309818
H         1.31355007298985    2.49446112792916    5.71023189318104
C         1.38253714346711    2.71431501902597    3.48424578882000
H         1.32004716758564    3.79790310686772    3.62889831655564
H         2.39060786901232    2.49984354213483    3.12083602387833
C         0.31977190804210    2.24466897922724    2.53680608138792
C         0.18027047214475    2.48702866175726    1.18666671162593
H         0.90458508248697    3.08637174392519    0.65528047090271
C        -0.91203011768718    1.94723605141815    0.52117818521475
H        -1.03638489870091    2.13059328030957   -0.53546037397280
C        -1.84337522481344    1.17154983794690    1.19506622307536
H        -2.68184121164259    0.75715772814698    0.65537675705994
C        -1.70707102147857    0.91375511941157    2.54917366370944
H        -2.42172303270652    0.29122061009854    3.06721373235470
C        -0.61980100917407    1.45560843686944    3.21848934685954
C         1.95136150813030   -0.26587697238277    3.17191872103819

