33
CSD_code = MASLEA | q = 0 | S = 0 | Stoichiometry = C14H12HgN4S2 | MND = 4
C         0.45308081313899    6.00949433516665   10.75752551244921
H        -0.11157756153166    6.42203514556510   11.57870543489619
C         1.70748942534557   10.50108801965574   13.38162507835211
H         1.19399862119425    9.82373518675509   14.05958685532863
H         1.29381374235910   11.50178145613850   13.48489475148803
H         2.75830306173350   10.53884268980766   13.67136107560569
C         1.45255776050692    8.68057091895758   11.67016848991186
H         1.38219675572598    7.95419136600764   12.46444370452498
C         4.63117202333012    8.58803855937637    9.31486802448997
C         1.70542115247946   10.41559781127498    9.61383580462681
H         1.79345639417727   11.08123077098393    8.76350101516280
C         0.30095774548240    4.67217349456686   10.41271988367683
C         1.44068255874944    8.26046084209673   10.34618915415416
N         4.51059862687018    8.60032803796917   10.45983723148413
C         1.72169305836853   10.91054115620840   10.90204280870713
H         1.83584134939897   11.96975637414939   11.07131326525553
N         1.95700074163344    6.37280274798906    8.94508435676956
N         1.58106513688336    9.12250023299175    9.33219350437684
N        -1.05356914703717    6.88608788112387    8.03465121692062
C         1.61532558872037   10.02661015716599   11.97193058501716
Hg        2.46287162578482    8.10110431821245    7.31378556551998
S         0.47522736984845    7.81317821866652    5.86812022484947
S         4.85879877179532    8.60735788867787    7.67226368387732
C        -0.64380950557935    3.78682431711095   11.15041377844671
H        -0.34547228753181    2.74449449570855   11.07413676517263
H        -1.63602368496566    3.88929479499690   10.71054386138744
H        -0.71052934400953    4.06973982910878   12.19789043027663
C        -0.41203353511822    7.27743433606488    7.16223873030310
C         1.28299622743122    6.83178407711848   10.00664521553473
C         1.84214162070937    5.08628475903227    8.63147129533198
H         2.42322503926583    4.75060773008364    7.78084511860583
C         1.04069743239362    4.20600096040802    9.33026526172247
H         0.97710242250138    3.17422709084990    9.02200231578930

