33
CSD_code = MASLIE | q = 0 | S = 0 | Stoichiometry = C14H12HgN4S2 | MND = 4
C        -0.08537697912303    6.83149934567083    6.43141048269031
H        -0.36423635327794    7.87653986926877    6.35479203811158
C         0.55491681642070    6.36053723531312    7.57066968722053
C         0.91386514916815    7.27767384501069    8.69154090315123
H         0.26434764981398    8.14884037200292    8.70733779484584
H         1.94026071284289    7.62149235592675    8.56194798161213
H         0.85004661083798    6.76391281728149    9.64775486648495
C         0.87985276036626    5.00792474226608    7.59742363582596
H         1.40019167896784    4.59341231723277    8.44835525074416
C         0.54205825939972    4.20369551916664    6.52775175459966
H         0.80940151349577    3.15954376528156    6.52354434023375
C        -0.10016886440464    4.76556756605233    5.42671168684488
C        -0.46587400738349    3.94664928081129    4.25725499937129
C        -0.83847968768329    2.61222465702633    4.39911699148624
H        -0.89633882546959    2.16776950947167    5.37944695297160
C        -1.18358602071216    1.88287554041168    3.27900528067873
H        -1.49943664006582    0.85440153342571    3.37434079018968
C        -1.13164931999766    2.48279861479785    2.02511404026655
C        -1.51289185095872    1.74850880448484    0.78358606663970
H        -1.00553112183222    2.15992596003990   -0.08511617393667
H        -2.58727805513867    1.84360783686223    0.62494679621500
H        -1.27747308253885    0.69068463709366    0.87066122815614
C        -0.74805054344232    3.81745096024410    1.98124888586841
H        -0.68863868134339    4.33663784086976    1.03115669999434
C        -3.31381381301258    5.61168329015508    3.38237968387247
C         2.23575851715599    6.64720240161809    3.86155839712441
N        -0.39552271321011    6.06957889641335    5.39023374870897
N        -0.43613509567733    4.53181081666183    3.05467464942503
N        -3.50451735010853    4.54472733742162    3.77078123761417
N         2.66805391390536    5.87972364758045    4.60282160806232
Hg       -0.64808496232315    6.95475790400446    3.13435270544306
S        -3.09162415325604    7.14508164076749    2.79063780781596
S         1.65835453860200    7.78935913933595    2.80655718166494

