48
CSD_code = MASNEB | q = 0 | S = 0 | Stoichiometry = C20H21NO5Pd | MND = 4
Pd        3.93074240333907    0.12303146676041   -3.83423252937777
N         1.66522844878152    0.06503823169798   -2.14830150487648
O         3.05677225241447   -1.85169490243822   -0.72333893339930
O         5.49343004678982    1.04803768940385   -4.85222603422249
O         2.89587022051060    2.02482562027423   -3.78636465798027
O         7.41821997565173   -3.93460154422745   -4.96111866079815
O         4.28339741423053   -4.44264749261168   -1.42999143631356
C         2.47265815316348    4.32471004516119   -4.15581517652919
H         2.21958239728399    4.71142297515750   -5.14040449378881
H         3.00554318529402    5.10090452863053   -3.61111052767082
H         1.55891582959883    4.07221180405010   -3.62218055177755
C         3.34535734102616    3.08803664389287   -4.29017619034396
C         4.56299703098317    3.25167252014936   -4.95382717274019
H         4.78658336579522    4.24133289805812   -5.32401639596830
C         5.52599321880159    2.26135721464666   -5.18368338414287
C         6.77144383428806    2.70925077213288   -5.93151579873045
H         7.46728484135625    1.87774001427935   -6.01037715743558
H         7.24938008554337    3.53322763799859   -5.40639030167899
H         6.50161981328414    3.04884318328800   -6.92955550531921
C         4.78227794958473   -1.66537382612465   -3.75523094011447
C         4.28957912413735   -2.46578577514699   -2.70872568869852
C         4.84139673176419   -3.73300905132846   -2.43907384553237
C         5.88328263881719   -4.17829141901926   -3.23440385370749
H         6.34694937554004   -5.13983279827146   -3.08783410476493
C         6.38792611865061   -3.37853511649036   -4.26428020303792
C         5.84430461140267   -2.12347622223547   -4.52276295531275
H         6.23404429788902   -1.49241149565976   -5.30898598394212
C         3.25327340105457   -1.79338853095144   -1.92426186166356
C         2.44392521018759   -0.88082906021366   -2.82565619950132
H         1.84747215555857   -1.46364736151073   -3.54020337540047
C         2.24109096022796    0.79531816505229   -1.16849807250109
H         3.28927443099958    0.59808743727843   -0.96964741148920
C         1.54173116143073    1.76340169120850   -0.48898988353103
H         2.03730501398349    2.32586851829498    0.28573333640938
C         0.21761889629981    2.02423260014441   -0.82216139903996
H        -0.34121731917210    2.79360113695198   -0.31481290393587
C        -0.35804407778958    1.27621751965969   -1.83928275475821
H        -1.37882451296258    1.44514972946144   -2.14314493877453
C         0.37956408380188    0.29866880666701   -2.46722975124372
H        -0.03874603198524   -0.29977592605332   -3.26316027560840
C         8.00762863332731   -3.18517939825529   -5.99649667659070
H         7.28987675247039   -2.96927614055841   -6.79393043821930
H         8.80969125274589   -3.80758192560879   -6.39116466466542
H         8.42667545255050   -2.24635539189180   -5.62187481295586
C         4.82569139841969   -5.69976607307815   -1.10928077633283
H         4.72775014472697   -6.40390339106491   -1.94243143816513
H         4.24698122836820   -6.06126298046036   -0.26068547616963
H         5.87920105983274   -5.62186302709603   -0.82299623765979

