77
CSD_code = MASPAZ | q = 0 | S = 0 | Stoichiometry = C33H39FeN2PS | MND = 4
Fe       19.53974497457228   11.32599294152509    3.19422773417969
N        17.87177472396928   11.14269063284499    2.55303406408829
N        21.32544968261670   11.46375278225088    3.27053084851947
P        19.08399469686280   12.03310490126932    5.40236270807560
S        19.80908164797618    8.84762352280140    2.92200711660387
C        17.65292392434050   10.09471282361532    1.69926075994592
C        16.62017762565960   10.10199639694285    0.74196354512486
H        15.99811614039827   10.98229858813978    0.66422589277889
C        16.39880609104991    9.02518883044298   -0.08618333747393
H        15.59649069916891    9.06896681496727   -0.80879796207382
C        17.18680915078964    7.88647583476766    0.00380612776747
H        17.00001112369091    7.03658034955729   -0.63412912982490
C        18.21606360998929    7.85294619058632    0.92694167962256
H        18.83400035608870    6.97291980229571    1.02643085118632
C        18.46258021854652    8.94018877587827    1.74290506020991
C        16.85283211710806   12.10704261690644    2.65186440462140
C        15.66466581877470   11.82360554802404    3.33736023106846
C        14.70931666134701   12.81914327235298    3.47896628697955
H        13.79733483791328   12.59491942470362    4.01544036017031
C        14.89621379508710   14.08596793541796    2.94834309790603
C        16.06463524778734   14.34048537275427    2.24228970805199
H        16.21372184522193   15.31579118067360    1.79983438104406
C        17.03984364078989   13.37154255794998    2.07919727482805
C        18.25329677759181   13.65015969590061    1.24176387044970
H        18.00101736374088   13.55071494658113    0.18525600535793
H        19.05106567798311   12.93355872472044    1.47140383735646
H        18.61763838671657   14.66005957822973    1.40901136654516
C        15.42276551590869   10.45357944315792    3.89693311955605
H        14.96501093776302    9.81487031294331    3.13984258785736
H        14.75596500149161   10.49682861929467    4.75557349355431
H        16.36286935906667    9.98972735957692    4.19150838636049
C        13.86335653554216   15.16045735592129    3.11252914133800
H        13.49533360143931   15.48597071318751    2.14004751914186
H        14.29355583847835   16.02792929571678    3.61180416892256
H        13.02079104646429   14.80427286908913    3.69975094131469
C        21.84277544841018   10.64494424418718    2.29446468151255
C        22.99734196672915   10.98686934186104    1.56915096329498
H        23.52588236854262   11.88842821476904    1.84566487036284
C        23.43666378638466   10.21421408638610    0.51651637791667
H        24.32276990608928   10.50992633915774   -0.02628015943287
C        22.74925763516987    9.06698655047525    0.14824867687764
H        23.09286582399811    8.46282833580251   -0.67714266096804
C        21.62992928663852    8.68604077552908    0.86716859713256
H        21.10293978242016    7.77891607033186    0.61326137896664
C        21.17837579771686    9.45655502171976    1.92142510069129
C        22.23443151327781   12.26413297871168    3.97647612464218
C        22.13757502164718   13.66165694637060    3.94292223927052
C        23.03473174886656   14.42360608772279    4.66971803835836
H        22.96234400402889   15.50216831038557    4.63163415983987
C        24.02931813835995   13.83835654943276    5.44273537196961
C        24.10036775132694   12.45495781172565    5.48470455232834
H        24.85802888432186   11.98011483039153    6.09310217203852
C        23.22209371225191   11.65777489409576    4.76699309883147
C        23.30507738969177   10.16343227710561    4.86281263456910
H        22.30560469598493    9.72940839731919    4.90855304020272
H        23.86244887177310    9.86820546529845    5.74904835541576
H        23.80575800766572    9.74579468289355    3.98835799306131
C        21.06467316526006   14.30483936670686    3.12099877268344
H        20.08608599340034   13.95413843575990    3.46080239389972
H        21.17626795649385   14.02499111042238    2.07362605936950
H        21.10759250648106   15.38769367903919    3.20262971240988
C        24.97937961087792   14.69125654258932    6.22889874498045
H        25.36349799711563   15.50438768695711    5.61534763117474
H        25.81691905139227   14.10356704652813    6.59634288512565
H        24.46881740000351   15.13282856791217    7.08540703976010
C        18.63730942391296   10.53064237722653    6.38299813556226
H        18.42973460313858   10.78107728053165    7.42274973828175
H        19.46560279652804    9.82502525808045    6.33694441465808
H        17.76212667668606   10.05648926240265    5.94485536274128
C        17.66614570266869   13.11648439381295    5.87437129700002
H        16.75320074956617   12.74215444364110    5.41951677777342
H        17.84485781877539   14.12074714135347    5.49508001548985
H        17.54817990361654   13.15447171244237    6.95648899076022
C        20.32384150385034   12.72532605160217    6.58233710928210
H        19.90538400634611   12.78027595712375    7.58679196166155
H        20.62238643215249   13.72003087683862    6.26032304373410
H        21.20956048853798   12.09468858637428    6.59224816559831

