63
CSD_code = MASQOO | q = 1 | S = 0 | Stoichiometry = C23H38OsP(1+) | MND = 10
Os        2.79555674720081    5.87673518465213    7.35300019949249
P         2.44687905775649    3.99056575934381    8.69030340541736
C         3.26232043506582    5.64929282334999    5.21059526810387
H         2.93824084898367    6.52521697151043    4.66157952617807
H         4.24317665663328    5.29649360913117    4.91380717338203
C         2.29788043106813    4.69299542143402    5.59077192679557
C         1.03884184214192    5.14047977761526    6.06248401607004
H         0.37366967306486    4.35998960321800    6.42917944938930
C         0.25058827828517    6.26929009220527    5.44833062514337
H         0.89164671974750    7.12378617584878    5.21230090801604
C        -0.86652286647658    6.73719492246050    6.38559733043027
H        -1.52968006927570    5.89639612684298    6.60109378026872
H        -0.44036795111957    7.07763100175496    7.33207041563116
C        -1.67481297892163    7.85821752168751    5.73911770127329
H        -2.46578752729009    8.17950604973922    6.41819822340456
H        -1.02694767785128    8.71800789933396    5.55200350371981
C        -2.28021002319399    7.38489157414010    4.42141099286354
H        -2.83199631442143    8.20025593523200    3.95276631279155
H        -2.98462619539434    6.57385248730455    4.61680810109592
C        -1.18668972776610    6.89160404471279    3.47926454852068
H        -0.52526662693308    7.72205718346079    3.22208542759166
H        -1.63144563574989    6.52219969383783    2.55437806699829
C        -0.37447299960649    5.77581345155725    4.12997165083188
H        -1.02593013181478    4.92419517254490    4.33606693194394
H         0.41402743395219    5.44053587447350    3.45302281639506
C         3.52654770394724    3.70884409417774    7.29014032067171
C         2.83183565881146    3.32416409228880    5.98638087987683
H         2.03941390517684    2.58309924658714    6.09962070607780
H         3.54613371618618    2.95062070515423    5.25341595583468
C         4.99515104751652    3.40556071240475    7.38296142517360
H         5.16207621048354    2.32733504914569    7.34140847848161
H         5.44267372798115    3.79114210089103    8.29401916543743
H         5.52350968402602    3.84152655407609    6.53565850008826
C         0.93419422903131    2.87551158388657    8.73634384794224
H         0.67990727365494    2.71349065356914    7.68376714574562
C        -0.21240748253184    3.63875356338465    9.39509603286019
H        -1.14006195890920    3.08179048325710    9.28318287506444
H        -0.33839117187366    4.61716238013110    8.93334149005839
H        -0.03366382135916    3.78011653347048   10.45738130540637
C         1.16579232039750    1.51384922251762    9.37630160027571
H         1.26895627501588    1.59413670827922   10.45394760678579
H         2.04609977753203    1.02569135173959    8.96469917301199
H         0.30349367269963    0.88002859739917    9.17649165115737
C         3.47448804122192    3.84517386392997   10.24243876808478
H         4.30701344351371    4.52825296867367   10.03282740781732
C         2.70126185019602    4.38135678976198   11.44466092745246
H         1.91470862506891    3.69274557530498   11.74252663600801
H         2.24988579903137    5.34767012977777   11.22434016740900
H         3.37336500009145    4.49968830395980   12.29221791564404
C         4.05485131309443    2.45962118657286   10.52185815289212
H         4.92861074838012    2.56590986280313   11.16180594800548
H         4.36368558895202    1.95560701597329    9.61074379974621
H         3.34498767587140    1.82756224177164   11.04432598234459
C         4.40385786273652    7.40764159010624    7.87718903993299
H         5.46927990060965    7.29054691594316    7.76363772314990
C         3.53764508546625    8.06896171181411    6.96448125407765
H         3.84751366095136    8.53558427671898    6.04217590707726
C         2.26709495289016    8.22719373509590    7.57512408153925
H         1.43981996382530    8.78415433669776    7.16768161274393
C         2.30546887408658    7.59539298828645    8.82696147578050
H         1.53697093892944    7.63784549702144    9.58357582077815
C         3.64209353703959    7.08746466246522    9.02442978143113
H         4.04146497217242    6.76229835756974    9.97453113638729

