55
CSD_code = MASRED | q = 0 | S = 0 | Stoichiometry = C24H22N4O4Zn | MND = 4
Zn        9.03909251693326    3.37572122301878    2.77643375961557
O        10.94774761681391    3.86308340039055    2.16260584993550
O        10.02308852053534    4.82976001060496    3.88665208485897
N         9.62006871836003    2.98828493378378   -0.32868108010087
H        10.11407923410711    3.48577502050704    0.40030157384825
H         9.61558388052252    3.39312983043226   -1.24857927605544
N         8.42408575676703    1.97261890307875    1.35606258379489
C        10.96327876144347    4.73471439202056    3.06970816153937
C        12.12832226110155    5.65588300460592    3.17443320405961
C        12.11640483339794    6.68346326629039    4.11114555621039
H        11.25411624312112    6.78892876620485    4.75182200428984
C        13.19142217651925    7.54774992348626    4.20180222684633
H        13.18147399366345    8.34892454307422    4.92672136194149
C        14.28154405772433    7.38895571571653    3.36074805807445
H        15.12062647800296    8.06624209262391    3.43185046039328
C        14.29691516057695    6.36466302914040    2.42726719849774
H        15.14831491439964    6.24381668430442    1.77302190052412
C        13.22304546276403    5.49919629644280    2.33161894292889
H        13.21361206784380    4.69489880000536    1.61158847735298
C         8.58066216269760    2.22398619398782    0.04731894720797
C         7.72563978012867    1.63703526791997   -0.90989329649186
H         7.86365702689985    1.87620209881109   -1.95316952367438
C         6.73796168094186    0.78112549936867   -0.49639544641258
H         6.07029095652374    0.32678215308846   -1.21376473771770
C         6.60841191420813    0.50421299675705    0.86538222413326
H         5.84864907378569   -0.16859272794103    1.22713020597515
C         7.46551587161057    1.12887574181155    1.74069303546216
H         7.39519780346019    0.96722146885111    2.80623782558669
O         7.13054843647163    3.86325714530635    3.39035366561678
C         7.11487026015282    4.73466460145657    2.48302729928307
O         8.05532634106533    4.83007746694037    1.66641638766576
C         5.94991367283207    5.65595570679088    2.37839117497745
C         5.96189260380064    6.68356847070425    1.44172394368557
H         6.82414731335125    6.78895664183990    0.80098383052242
C         4.88688029442806    7.54785031079015    1.35102705675911
H         4.89668111842926    8.34879278465631    0.62583827254271
C         3.79671796432726    7.38903716919502    2.19202016187779
H         2.95749232319123    8.06612565768671    2.12066537309011
C         3.78127785019310    6.36469815318928    3.12543997163473
H         2.92985238563299    6.24384461901898    3.77965220555208
C         4.85514028705668    5.49923604473887    3.22112715201603
H         4.86466089971927    4.69508718501873    3.94132637764642
N         9.65412855563469    1.97255294774293    4.19676071341978
C         9.49762037789145    2.22392706449204    5.50550227829007
N         8.45813051743239    2.98811306390942    5.88157158059011
H         7.96408664413193    3.48559687720907    5.15260184614371
H         8.46272900604010    3.39304551763458    6.80141374928834
C        10.35268785462825    1.63699187960637    6.46265157054120
H        10.21476965086030    1.87621001844795    7.50593068098019
C        11.34034950199476    0.78108715945625    6.04909889796689
H        12.00822180461548    0.32693259263051    6.76641659537161
C        11.46985520800602    0.50420038880845    4.68733343666224
H        12.22963322064220   -0.16856035160956    4.32554577802777
C        10.61271645084729    1.12885255655231    3.81207639985874
H        10.68286053177960    0.96703979943284    2.74654131737120

