32
CSD_code = MASSAB | q = 0 | S = 0 | Stoichiometry = C15H10F5NZr | MND = 12
C         3.69184593944524   -0.03669510259776   16.71380219387255
C         3.19736780288991    0.54577269610207   17.87431726825345
C         3.92857092599351    1.48060385749621   18.59179092177756
C         5.64180254864912    1.34641488465584   17.10076768821957
C         4.95363291636718    0.40786223061128   16.33790567964741
C         2.80569888863074   -2.78540274711004   17.63952892230341
H         3.30977915866493   -2.44473882270696   18.53710954160632
C         1.41114309541803   -2.72477300141128   17.39997876207996
H         0.67280815001124   -2.32271859960854   18.08250195585488
C         1.14082651607370   -3.45744557924835   16.22223328349476
H         0.15571609841857   -3.71922236961182   15.85270378130515
C         2.36500476236204   -3.96948316237476   15.73450907202024
H         2.48701948520627   -4.63755320702376   14.88958119668426
C         3.39130262506859   -3.55889847618209   16.61098075213463
H         4.43316604819707   -3.84938076546725   16.54626883364689
C         1.66192140624228   -0.54298832409062   13.37888657461927
H         2.14779188127868   -0.73778237717174   12.43083339319968
C         0.62240366788560   -1.30900618109668   13.95135692375649
H         0.12823704272441   -2.15089808244222   13.47682235334701
C         0.19846694840172   -0.65143646805906   15.13464403024622
H        -0.67832242205941   -0.89917475111243   15.72143932799236
C         0.99883868490004    0.49742920757205   15.30434127926127
H         0.83331744230513    1.27886452633069   16.03611897582065
C         1.91420163963581    0.55760419986109   14.22196389159800
H         2.59754127098404    1.37219814221274   14.01041538120214
N         5.12760819014993    1.85654731978730   18.19988172711502
F         3.78446713451513   -2.00843702645996   14.28749900036059
F         1.93512678806215    0.12796928111190   18.22411448065223
F         3.46442470304109    2.04619986342963   19.70383099176085
F         5.43540546931669   -0.11793100283580   15.18359595153781
F         6.85158397177947    1.78309166075124   16.76326608895976
Zr        2.49270121944263   -1.48439182330906   15.54490977566960

