58
CSD_code = MASSEH | q = 0 | S = 0 | Stoichiometry = C26H26N2O2PtS | MND = 5
C         7.68500762435272    3.07755582799133    1.68303876102940
H         8.13575467961756    3.82421832288572    2.31105374254088
C         8.24976582236213    2.47607421113940    0.55223414244983
H         9.22495707077412    2.67721099981170    0.15334300293868
C         7.31372052172502    1.58652038869744    0.06407186512820
H         7.40318526257582    0.93768437699912   -0.78550609639722
C         6.19631569790696    1.68229078429596    0.91571378414453
C         4.94725551239114    1.03295428721699    0.89000767983584
C         4.65638028043886    0.06834438157590   -0.18461074568621
C         4.35739355040690   -1.25305016856909    0.13166735788150
H         4.32251698026175   -1.55879002635067    1.16555300494061
C         4.09864330801000   -2.16179380805591   -0.87863945297219
H         3.87205231498554   -3.18741368240198   -0.62870863408609
C         4.12455023578526   -1.75989968111309   -2.20343673837434
H         3.91200150928975   -2.47015368213840   -2.98877338074210
C         4.42882637616220   -0.44661718982285   -2.52152572782121
H         4.45320384230200   -0.13031925145788   -3.55387251021594
C         4.70837981122197    0.46252742124576   -1.51896224927207
H         4.94558234915102    1.48784209096200   -1.76159546185770
C         1.96024277636032    0.85460557693252    0.15209261093291
C         1.40017379724781   -0.26424387312028   -0.42975848080377
H         1.31868436335800   -1.16737530025069    0.15390503899712
C         0.97311688679144   -0.19901065656927   -1.74309683455600
H         0.54111951010498   -1.07111406371312   -2.21135221484593
C         1.09816316041031    0.97946869782463   -2.47271833730595
C         1.63998559403383    2.10156815548908   -1.85498737255467
H         1.72898890360866    3.02507837532016   -2.40818647675171
C         2.06810602788259    2.04377814281415   -0.54066468787631
H         2.48978675770517    2.90600475137521   -0.04694297484329
C         0.63299002995604    1.03658788456596   -3.89487444256436
H         0.88952292748758    0.11906855770876   -4.41967282043615
H         1.07590898025019    1.88041804437331   -4.41724817453134
H        -0.45095156752715    1.14723586030255   -3.92691209656631
C         3.85783774820296    1.91510254628763    4.92269110978559
H         3.29035868747455    1.10564698871247    4.46268922228666
C         3.44121166703814    3.20763653725053    4.66482339393680
H         2.58518729069912    3.34248175880363    4.00551932284064
C         3.80290054327834    4.37203873668292    5.55738971295314
H         2.97986590525110    5.08633454742088    5.59723889414696
H         4.00289339009604    4.01737353288076    6.56962412445245
C         5.06371512443140    5.03582887795345    4.99753538894664
H         5.51198613550522    5.70618248036440    5.73701490883359
H         4.80496435346671    5.62870172715277    4.11508071777925
C         6.06169633496501    3.94053222365451    4.58001828131455
H         6.91505895870345    4.43540556052615    4.09769968271005
C         6.56733176839489    3.16626569558170    5.75142663770316
H         7.54514006414352    3.46709640891063    6.11359140135937
C         5.96365751379344    2.18442730113725    6.41350750551512
H         6.47269674571333    1.75958786593799    7.27171009359851
C         4.65224612997836    1.49874089655715    6.13614533849836
H         4.01169731340322    1.62978176435306    7.01927909877349
H         4.85850575162390    0.42572982516271    6.06854556117654
N         6.45961631197605    2.60745322580636    1.90685884645373
N         4.09444870566829    1.32982062092837    1.83778373809627
O         1.79013955410216    1.81967030983180    2.56259644847320
O         2.45101413221502   -0.53082377902154    2.36727031102321
Pt        5.05177388940941    2.67903175220085    3.32727392462051
S         2.52332508304106    0.80929683894689    1.84895125495912

