107
CSD_code = MASSOR | q = 0 | S = 0 | Stoichiometry = C54H45AgN2O2P2S | MND = 4
Ag       12.77409581214106    8.90911498762255    4.23060969060310
C        15.02962560472559   10.86189133069217    2.14052231352507
H        15.71110590671411   11.17889490138756    2.91404241192005
C        15.03696570512104   11.24304652242916    0.78654971173662
H        15.74410008086149   11.90013059030495    0.31510730567214
C        13.95613274969745   10.61716939366704    0.20763680193706
H        13.64506091521721   10.65027429918623   -0.81972787228163
C        13.33835233449701    9.86610861286200    1.23553851403103
C        12.17162925858191    9.08737451492170    1.20497796655763
C        11.20499691446209    9.20637881341248    0.10572046581693
C        10.64193497450449    8.05856286258280   -0.44536323358830
H        10.95597959595488    7.09143601113346   -0.08264164335519
C         9.68902415067304    8.16544973708978   -1.44106194789117
H         9.25671973386152    7.27197043517947   -1.86699949768374
C         9.28333554578755    9.41286627853345   -1.88701472415634
H         8.53087483533206    9.49298355821887   -2.65822306296668
C         9.84347552041629   10.55761420298837   -1.34400308306989
H         9.52777648028506   11.53140286526473   -1.68988930907210
C        10.80536592113326   10.45788329175344   -0.35683252717061
H        11.23539262325361   11.34662481949442    0.08181164145399
C         9.48974448250399    9.35264816787743    2.50076681831289
C         9.89835232258737   10.57563234753494    2.99402760710368
H        10.79375700754289   10.64307672538022    3.60040139097479
C         9.16610806789619   11.71218643980883    2.70138848435117
H         9.49193289775952   12.66799458544384    3.08624901957938
C         8.02521128953184   11.63284616712771    1.91150864360404
C         7.62185324507937   10.38934817184997    1.43361131710123
H         6.73504660276173   10.31591089094475    0.82097744412065
C         8.34996453592640    9.25169625146986    1.72647103884515
H         8.06347246528760    8.27939366973101    1.35717549387158
C         7.22841471114833   12.86019460124800    1.59058719166896
H         6.34475354700574   12.90755518809778    2.22750397685367
H         6.89255654741029   12.84046324281849    0.55601682353234
H         7.81634557068575   13.75931716010112    1.75680437927375
C        12.22610831929598   12.43680033269810    5.38194491948315
C        12.51573423517388   12.98008037363325    4.12852207714349
H        13.23463813067033   12.47740726754951    3.49310790062050
C        11.88719305055273   14.13660774562332    3.71171132017323
H        12.12037262774257   14.55854485510109    2.74481428071492
C        10.95038060774985   14.75146272442373    4.53123973464736
H        10.45642519905680   15.65508400845579    4.20452477327511
C        10.64140774590319   14.20037813487069    5.76362259985678
H         9.90382783260366   14.67297511165564    6.39605632916659
C        11.27151362829073   13.04350426952228    6.19061941133179
H        11.02301249490317   12.61261306714651    7.15023220920754
C        12.63895820257762   10.60121676850466    7.53967883974845
C        11.85271453082772    9.50058265628728    7.86471374960061
H        11.50145918687822    8.85203505764460    7.06779330228015
C        11.53150664335773    9.24398931903838    9.18601760584137
H        10.92210051980271    8.38836779302565    9.43712131369112
C        11.99511020525144   10.08443400909224   10.18518513558036
H        11.74684425612337    9.88515308752559   11.21737275970932
C        12.78059189207011   11.18119724627938    9.86413499535134
H        13.14143166493725   11.83344811860918   10.64608902003820
C        13.10631895169094   11.44149686451042    8.54567104357807
H        13.72334204677514   12.29177088792065    8.29098153467122
C        14.79007227631867   11.34357064909303    5.90552945542101
C        15.24484746523700   12.65682661713204    5.91758600075482
H        14.54456569070818   13.47671533371707    5.84101374165432
C        16.60172887432816   12.91548875897439    6.01432424914636
H        16.95190394241960   13.93770778045172    6.01782134710144
C        17.50893228795608   11.87301046259564    6.10259923735430
H        18.56623961632640   12.08234230296616    6.17023523313975
C        17.05897963683138   10.56126208085347    6.09728828161338
H        17.76210347774604    9.74354360318370    6.15727934435072
C        15.70653596194381   10.29978160202745    5.99967376716570
H        15.33545752769153    9.28007905252419    5.97401288220823
C        15.94153355316898    6.71651507965618    4.46890676867279
C        16.48308772707563    7.76408992903271    3.72596750925458
H        15.82009081222861    8.54060320856328    3.36069132434331
C        17.84166444383758    7.81225208132393    3.47677460513473
H        18.25341465078198    8.62469313966240    2.89598170488784
C        18.67290729848109    6.82362848480619    3.98019695401747
H        19.73589802543450    6.86052165912508    3.79063386000928
C        18.14009977936496    5.79049812022345    4.73315128059659
H        18.78856261036727    5.02314513023616    5.13119658929064
C        16.77899363283487    5.73302444927586    4.98004936026678
H        16.37435741761037    4.92685441836872    5.57436840727867
C        13.51790240466803    5.84759003992933    3.28342101261521
C        14.13111714779907    5.97378505449906    2.04136271879385
H        15.05199868763969    6.53232120877152    1.94667513360969
C        13.55098391713023    5.40044882505328    0.92525464450478
H        14.02456636824184    5.51062967915976   -0.04059744369654
C        12.35974483149142    4.70229389585973    1.03888234554603
H        11.90391688595263    4.26345387305999    0.16263347655931
C        11.74200420949601    4.58278219963067    2.27267734911486
H        10.80186399199621    4.06011440767901    2.35940365146324
C        12.31059740949242    5.16358671493309    3.38997340544667
H        11.80699005972935    5.10641884275092    4.34521460493624
C        13.89530882043596    5.58738643887307    6.09186150194906
C        13.65959828197101    6.12074498264422    7.35489023210429
H        13.60993827071818    7.19760290650368    7.46891062918050
C        13.48216592292333    5.28630265703213    8.44364877715194
H        13.29638063540557    5.70634955359047    9.42157070900762
C        13.53735760036201    3.91226347793024    8.27648922716731
H        13.39347062556252    3.25756445013492    9.12353426433211
C        13.77099035781664    3.37520750519560    7.02006025603662
H        13.81281882953072    2.30313144453531    6.89121081204073
C        13.95089599440845    4.20611319760734    5.92900691575976
H        14.12655683599644    3.78610314464828    4.94795862097132
N        14.03217658569317   10.03359003877946    2.41612327129450
N        11.94999356765225    8.28567199598674    2.21993827770465
O        10.67121477259767    7.76614191327287    4.22047834753611
O         9.87961161110989    6.76884238602018    2.14273821982802
P        13.03622119982157   10.85696711662121    5.77763436259747
P        14.13104118655327    6.77254306048694    4.72336629261961
S        10.49684635043430    7.89580370775159    2.78809207305555

