107
CSD_code = MASSIL | q = 0 | S = 0 | Stoichiometry = C54H45CuN2O2P2S | MND = 4
C         3.08958413789061    1.44771094831950    1.31156990402607
H         2.22607371299511    1.15897633198435    1.88605161085775
C         3.34106890380988    1.19783395510535   -0.04592842878557
H         2.68812531150830    0.68259753661410   -0.72474831379518
C         4.57987173437969    1.73837474917432   -0.32110446242069
H         5.10528999435824    1.74756762864299   -1.25695237678643
C         5.03861061881302    2.30641652628466    0.88523133919082
C         6.21849314335468    2.99948599578431    1.19201467782595
C         7.30533531574330    3.11488356833779    0.20268420631733
C         7.63262663668536    4.34098333586012   -0.36265083100013
H         7.05565229796572    5.21501316904318   -0.10412484559069
C         8.69330018636160    4.42927257649924   -1.24599265343376
H         8.94598738259482    5.38363168739271   -1.68372365512602
C         9.43334877255512    3.30277256041574   -1.56589920546705
H        10.26426115175487    3.37805648640974   -2.25235644975664
C         9.10493950016093    2.07882073119351   -1.00787868910978
H         9.67708105703216    1.19684319393610   -1.25704781469152
C         8.04167082897943    1.98220606208589   -0.12868233761785
H         7.78345732462587    1.03211005744611    0.31805997476373
C         8.80513203277054    2.85859803170628    3.11310145537561
C         8.50047998701153    1.71427334338610    3.82249035152785
H         7.60056318536086    1.69130284130958    4.42018956458829
C         9.34010257483776    0.61899211108529    3.74862525814771
H         9.09664717017709   -0.27907767252165    4.29787584650559
C        10.48664717512256    0.66048896634386    2.96082999055020
C        10.77778563675166    1.82399091533548    2.25594249128522
H        11.66354311763519    1.86691376102279    1.63912511047627
C         9.93718849242655    2.92076405136101    2.32460043898708
H        10.13407621768609    3.82643923408749    1.77279393006451
C        11.40007906133891   -0.52459734535712    2.88955783569818
H        11.92990672034848   -0.55080487539402    1.94060704165876
H        10.84252963664211   -1.44999455037742    3.01289787542908
H        12.14089735382148   -0.46902207797123    3.68764743221709
C         5.82576444838118   -0.20355473552493    4.92133347675988
C         5.59717273206361   -0.60108174834220    3.60473044470027
H         5.02432235962762    0.04995496022440    2.95556662061201
C         6.10222765204383   -1.79978006368962    3.14014073250763
H         5.91617774100713   -2.10480964990076    2.12074716422592
C         6.85489907167769   -2.60503710317994    3.98171407174795
H         7.25533731654815   -3.54079135203662    3.61984690633259
C         7.10016623066559   -2.20517867010203    5.28492006394238
H         7.69294704251207   -2.82925977232661    5.93861348620544
C         6.59222559329876   -1.00677891644776    5.75773371825896
H         6.79465767137954   -0.69803679575286    6.77342560943566
C         5.91073777052945    1.74248142144324    7.01081452252228
C         6.92917570994850    2.68857819983565    7.08915923822160
H         7.21904482094866    3.24170386445962    6.20503000965602
C         7.53362808450850    2.95033367541606    8.30732370640362
H         8.31905089581396    3.68919869149643    8.36547108082207
C         7.12408477034798    2.27723811936163    9.44619231849145
H         7.59522783292931    2.48315090531129   10.39639545159555
C         6.10064243579307    1.34439775673684    9.37195043889903
H         5.77571862106283    0.82601211497400   10.26269163734223
C         5.49160850506844    1.07621462151757    8.16023042360170
H         4.68760423691456    0.35490338529079    8.10060357308333
C         3.44182568854839    1.04583111227692    5.86308534148111
C         2.80169898261428   -0.15509537482003    5.58304855160761
H         3.34647049569218   -0.96174029312880    5.11322661199238
C         1.46509740205051   -0.31481127412824    5.90653070605460
H         0.97122475426546   -1.25143109139064    5.69121399501249
C         0.76026939879111    0.71818311040095    6.50131312754985
H        -0.28291845719374    0.58780981634648    6.74874488873983
C         1.39229316867205    1.92222713430734    6.77317117548592
H         0.84284638563614    2.73494021895212    7.22495524706253
C         2.72419757775079    2.08674045912385    6.45115045738322
H         3.22151882474805    3.03009378539792    6.64135875202731
C         2.55164252507560    5.12198746858743    4.48198141403194
C         1.82830770473942    4.02298519489737    4.02787530734229
H         2.37142896577911    3.16602470482278    3.64520371039433
C         0.44695927688332    4.01973711108905    4.06967101463305
H        -0.10177197074421    3.16013645687416    3.71294507645761
C        -0.22953963201890    5.11542734713019    4.57995179422958
H        -1.30912751465514    5.11640520592765    4.62068702323945
C         0.48286293169244    6.20880999441485    5.04369840272998
H        -0.04245515636680    7.06354263775636    5.44556952673950
C         1.86601839780313    6.21489039949043    4.99702495054277
H         2.40930693238824    7.07146206194861    5.36835319515214
C         4.68184232176438    5.93656558557320    2.85097041526320
C         3.88185096171832    5.67042651527165    1.74145652626492
H         3.04768617065740    4.98773650424244    1.83368298859028
C         4.16099506175381    6.26098090944662    0.52437719951551
H         3.54009163509024    6.04473284165941   -0.33353287323397
C         5.24246738021312    7.12001028656906    0.40164174361484
H         5.45998271108837    7.58166686111262   -0.55145708072217
C         6.05040476389602    7.37426249967318    1.49763124967562
H         6.90891802181305    8.02196009824439    1.40093095276133
C         5.78205717144378    6.77682156331465    2.71598648832527
H         6.44239406110967    6.93929827940310    3.55408091458001
C         4.85579764613459    6.14396279412690    5.71250747182315
C         5.18199448720961    5.56539587680839    6.93335046456560
H         5.17811827463845    4.48800907099466    7.01989673678869
C         5.52306122857059    6.35027300550745    8.01890637767968
H         5.78192117223598    5.88561365509059    8.95983707839192
C         5.53514578617883    7.72934676566183    7.89467195224506
H         5.80594233447394    8.34870100366132    8.73754643285506
C         5.19859005225835    8.31505321631830    6.68496024715154
H         5.20111108757398    9.39176343120375    6.58853899948732
C         4.85726024757714    7.53109525785323    5.59712448603432
H         4.59307038702056    8.00038999670394    4.65947810498574
Cu        4.76213635324741    2.81461239348867    3.62733652201679
N         4.09402291627125    2.10921428976168    1.86923133030890
N         6.32421900354550    3.48967357724156    2.39760675640552
O         7.19830026516191    4.53387179089344    4.40420778097424
O         8.18425676463504    5.26644630515655    2.27862610582333
P         5.15389967845860    1.43013096996500    5.37754895058168
P         4.38398346656730    4.99251273728109    4.37458372696645
S         7.61954398881628    4.20163298954676    3.06207071207994

