37
CSD_code = MASVOR | q = 0 | S = 0 | Stoichiometry = C12H14N2O7SZn | MND = 6
Zn        5.96712864416613    8.05424202350509    1.51046505934421
S         5.23903700575712    7.96102050535547   -1.11409151305931
O         4.97693728852885    8.52952116634386   -2.39270071001149
O         4.15001979806053    7.15646445588932   -0.55526693543407
O         5.64286227096881    8.97998723998132   -0.10880833743298
O         6.48344165509108    7.00726670457164   -1.25123235226877
N         5.87060760966694    9.90154286268173    2.48255370678959
N         7.96619897448996    8.63716787389176    1.35486855348106
C         4.82829916402597   10.50267240105495    3.00437070959438
H         4.00071456483163    9.86602650716407    3.27883970795805
C         4.76476834875996   11.88721780437653    3.19499050314006
H         3.88133803306740   12.32933218145031    3.62793030081702
C         5.83232228135202   12.66196533070799    2.81362241271303
H         5.81943545618965   13.73565096965588    2.93555097573715
C         6.95579671768019   12.04179937109024    2.24176875241942
C         8.09637286908351   12.76752624475526    1.79109830319001
H         8.09954000846030   13.84035377966516    1.91699411478171
C         9.13998500926008   12.13415538263350    1.20436206183307
H         9.99607723415716   12.68894067094866    0.84927046204163
C         9.13300759120003   10.72050191545787    1.02648502170055
C        10.17229863245493   10.02094247507004    0.38935066940757
H        11.02685866208359   10.56398887042314    0.01144188445275
C        10.07477730501163    8.65822281273460    0.25107543016047
H        10.84805796504132    8.09079945962500   -0.24196268580121
C         8.94554138151670    8.00301272759891    0.75513562137438
H         8.83378618105454    6.93246045702198    0.66624157278669
C         8.03191375848854    9.96741692052879    1.48748058720347
C         6.92091604602450   10.63743434033514    2.09712608299408
O         6.52161214607572    7.20539920911949    3.67662554004264
H         6.75605676476894    6.45271671666005    3.11256634532879
H         5.71934602537460    6.95233308286053    4.13932979219632
O         6.25436838603878    6.22868003166689    1.16393112821174
H         6.53391509199177    6.56365297738956   -0.34110705921765
H         5.47650306941755    5.73006122394290    0.91059122140346
O         3.82412660281056    7.69501152371202    1.90803498391815
H         3.76279760210987    7.57908313345381    0.91152201602361
H         3.54143385493142    6.84192864665137    2.25224607218145

