78
CSD_code = MASVIN | q = 1 | S = 0 | Stoichiometry = C25H46O2P2RhS2(1+) | MND = 6
Rh        5.51681373307042    7.20868582001420    6.74204661039202
S         6.40250932007568    5.36581764710112    5.49913343988120
P         6.45682507681639    4.04352236734701    6.98280997328084
C         5.56406911855920    6.19307530771483    8.44789232870325
C         5.18170227916453    6.76154429116151    9.67873093661416
C         5.37048888895648    6.11680457664608   10.89558902754583
H         5.08068604290064    6.60814468478257   11.81349597264477
C         5.94666459050578    4.86051663895709   10.93702437034366
H         6.11632298781070    4.36654790131015   11.88089580763406
C         6.28929095171137    4.24100141533456    9.74943022159313
H         6.72509467074534    3.25229598239729    9.76406041828279
C         6.09666158930036    4.89237310694442    8.53618272665941
P         4.33676965239137    8.35632688590016    9.60990778407399
S         4.56883809577021    9.12915346801546    7.79222764710287
C         5.14182110789842    2.75250915368968    6.71689121390753
H         5.25501729231527    2.46181916381294    5.66367573919979
C         3.78560127696816    3.42396678179954    6.90951429397543
H         2.98936076220058    2.77176928038393    6.55754324036371
H         3.73455903460931    4.36312590615129    6.35846593654590
H         3.61411408713935    3.63759274848518    7.96379604198568
C         5.28950738644052    1.52985309090425    7.61202708716400
H         5.18512329740077    1.80284333120448    8.66004782569956
H         6.24595446614317    1.03275135863730    7.46812991790970
H         4.50296141713070    0.81603295071613    7.37408038593416
C         8.11410231375886    3.21760354033538    7.08192983524037
H         8.07879592095544    2.48680676552798    7.89611378225985
C         8.39633767712409    2.52065318073865    5.75654638626039
H         8.33177706917247    3.23575271562937    4.93682369155085
H         7.69070526179841    1.71356570271965    5.56860991819006
H         9.39967728862204    2.10049676533512    5.76386232367445
C         9.15604329519443    4.28525598992077    7.39226911462262
H        10.13786520792299    3.83060150642730    7.50231238293921
H         8.91331020285256    4.81487600215317    8.31316986272365
H         9.20362016045368    5.00845573283152    6.57954162733829
C         2.52864124558647    8.04069362386973    9.93276689143548
H         2.02596054428978    8.95066521085990    9.57858189585630
C         2.19497401411831    7.79980567929414   11.39858731889137
H         1.12436448761236    7.63049473166027   11.49817687564184
H         2.45746395379657    8.65250039704586   12.02029941591250
H         2.70795883254446    6.91617730579871   11.77264193745245
C         2.10319663395630    6.86065808081238    9.06368917434967
H         2.49479998266179    5.92947236429335    9.47084425127689
H         2.47770778951347    6.97148039209171    8.04541539405379
H         1.01856146322850    6.78959074264713    9.02647697208198
C         5.00195107933644    9.50078116985859   10.90779274339138
H         4.79822281672256    9.06102386462223   11.88924606095970
C         6.50569696345079    9.62895637589008   10.69805994083880
H         6.71348557470868   10.01540752073324    9.70103825167952
H         6.99981936632816    8.66400397317272   10.80749886442909
H         6.92827098267407   10.31660371571978   11.42702279922095
C         4.29572569342957   10.84437979693178   10.77232405143297
H         4.70752671220449   11.55545091772090   11.48505002336202
H         3.22669036975701   10.75589346734173   10.95781165290827
H         4.44136504940463   11.24259399782497    9.76875898939192
C         7.39545657766629    7.88114025155457    7.21689335907830
H         7.62093174766975    7.87236770111549    8.28249135277041
H         7.43796145932469    8.91349591198604    6.86199551106991
H         8.15523962730821    7.29571802886616    6.69940948445038
O         5.62609737540107    8.41613403388098    4.78938416901083
H         6.49886724096191    8.32321109776011    4.38359718924914
C         4.65285890915124    8.51271500991224    3.75023880152824
C         4.79255482004648    7.33574807690339    2.78295610622316
H         5.73628773092525    7.40202290563088    2.24509354175183
H         3.98709852736564    7.34092013775336    2.05413423641237
H         4.78050234705230    6.39167662859258    3.32584669708444
C         4.86171184329846    9.84142716956455    3.01841214342401
H         4.77472443263496   10.67032624982591    3.71640555182521
H         4.12731977179777    9.96622637600681    2.22868056520601
H         5.85277116863050    9.87058439103023    2.57052870157793
C         3.26587350181317    8.52350742382562    4.43404840760899
H         3.34105868355515    9.22037002873643    5.27591619307228
H         2.52114744024262    8.88500540568496    3.72836986149576
C         2.86396768590338    7.18041489246753    4.98564656761642
C         1.66197160901373    6.54283576591206    4.36224054065778
H         1.45102845650542    5.58013060625700    4.82106315692460
H         1.82669271373571    6.41152446205090    3.29472043659918
H         0.80133883982611    7.19850694294324    4.48248977983289
O         3.45476241134871    6.63521541270579    5.89937626843796

