67
CSD_code = MASWAH | q = 0 | S = 0 | Stoichiometry = C33H26Cl2N4OZn | MND = 4
Zn        6.73359872449083    2.91780140461621    7.65121204403253
Cl        6.42862716011759    5.09771406133218    7.82130608591650
Cl        5.41552789867153    1.19766276654001    8.07271810506899
O        11.08770331241469    1.64225590470389    6.06005460958151
C         9.97567229797455    1.97539732906687    6.46923042827006
N         8.50227889092200    2.18721343666265    8.47773086523301
N        10.33038834674079    0.97391960700218    8.70847589246617
C         9.58111239883612    1.72703731408144    7.84999944954059
C         9.67774744732099    0.93845943754690    9.89882137680370
C         8.53246609240726    1.71655639333054    9.73877202078274
C        11.61228458944838    0.38160048201578    8.44046872221105
H        11.50835716686803   -0.46286895925297    7.75686880309008
H        12.05189240595813    0.04527453604097    9.37816766605935
H        12.26423179951267    1.11453815967384    7.96644117550365
C        10.12713237875240    0.23102697353575   11.09148776294091
C        10.52169818589600   -1.10504472442938   11.03781038474572
H        10.48509205946501   -1.64144131843714   10.10088823425127
C        10.91752416457737   -1.75965717133744   12.19020189140440
H        11.21759438194592   -2.79577314150990   12.13960092608501
C        10.92356265032069   -1.09300536229588   13.40375475683149
H        11.23354517260089   -1.60706269398184   14.30096672417084
C        10.52125468643894    0.23191117621829   13.46556845105689
H        10.51640208395933    0.75199812556600   14.41152228787108
C        10.12268996176402    0.89213969432340   12.31950187897668
H         9.80746534280728    1.92359671516179   12.36360204730658
C         7.46420623272938    1.97404949014306   10.69618402212560
C         6.91816699920584    3.25077821252666   10.81337138491489
H         7.33085526554873    4.06927125722501   10.24137979963973
C         5.86867453742733    3.47519191528316   11.68636660689977
H         5.44388522242220    4.46478633908317   11.76229784931079
C         5.36080284462476    2.43595467530153   12.44747900879650
H         4.53346219602989    2.61136095854243   13.11940634083973
C         5.91041989511143    1.16821797956070   12.34262004567891
H         5.51169130200890    0.35467436708414   12.93055991850609
C         6.95842488038588    0.93420398254555   11.47379776964243
H         7.36835125985018   -0.05959597472597   11.37048175332550
N         7.72858225080875    2.85853413543153    5.82059914182958
N         9.34750018565448    3.07365629214851    4.33748031719915
C         9.01770067144911    2.62897415640587    5.58589884743935
C         8.23387535877139    3.62806731979010    3.79243150674259
C         7.22020488531411    3.47483567018531    4.73666944016974
C        10.61711506413717    2.92881140339109    3.67926286744320
H        10.50190586745596    3.17654973941093    2.62538078371100
H        10.97050555128553    1.90365319231667    3.78337466747952
H        11.36082002455317    3.58559608894386    4.13396689657652
C         8.14944929907095    4.23006362964766    2.46747864016790
C         9.07673330123112    5.17880838076719    2.03888572742029
H         9.86880150105746    5.49715451735366    2.70081788803034
C         8.95959142165531    5.74753484586118    0.78343079188270
H         9.68083058639807    6.48389979400083    0.46126233143654
C         7.92028585263475    5.38003005862524   -0.05436974379727
H         7.83308741707135    5.82476942408742   -1.03413125910311
C         6.98710812093837    4.44773257652874    0.37138900524104
H         6.17045837153454    4.16554468020804   -0.27573490394578
C         7.09648901176573    3.87606712954740    1.62412753067163
H         6.37182889679733    3.14969320760892    1.95952506383963
C         5.83776354647689    3.93166850732900    4.67209014198438
C         4.80553161679371    3.11429995921007    5.12867784093712
H         5.02120989171679    2.11263680094773    5.47161764020625
C         3.50117837204066    3.57502899122196    5.11190966929933
H         2.70910617705357    2.93950821214531    5.47830740378955
C         3.21658548307297    4.84499371165445    4.63920701505137
H         2.19871008436760    5.20648588161837    4.63799123873369
C         4.23939092278288    5.65521117572918    4.17268112394558
H         4.02059792242883    6.64857827291610    3.80955073330869
C         5.54491858870792    5.20422438965507    4.18560287336841
H         6.34574351941538    5.84584450658159    3.84890168906489

