83
CSD_code = MASWEI | q = 0 | S = 0 | Stoichiometry = C40H36NiO2P2S2 | MND = 4
Ni        2.88857271210787   -2.22001742085168    4.57844095752757
S         4.83716194731056   -1.91940610948087    3.43883934754087
O         3.67825030906457   -4.19364326186137    3.54082642910134
C         4.62535500133881   -3.57490525183555    3.05839105450298
C         5.64217641152257   -4.21025624984714    2.15761883017478
H         5.94224657801034   -3.51491751552999    1.37851171897949
H         5.23539557140174   -5.12010703608738    1.72217872947973
H         6.52136347574930   -4.46383570589132    2.74966052595009
P         4.08216219025952   -3.02112249102342    6.25018823179697
C         5.56118957773204   -4.03900241670493    5.88891110064451
C         6.74176490047969   -3.36906710359342    5.57162282179779
H         6.75787172171715   -2.28810795795141    5.56306964058616
C         7.88657138749597   -4.07758212228701    5.26022546480622
H         8.79430546888359   -3.54663981015070    5.01288787578801
C         7.86807475745701   -5.46345978141625    5.26120242725314
H         8.76188638847655   -6.01797500494092    5.01491853777914
C         6.69902260461091   -6.13344351319476    5.57844157775321
H         6.67933483180474   -7.21365349722128    5.58320420642564
C         5.54897705136590   -5.42764523326813    5.88819420309344
H         4.64423817647383   -5.96337066210563    6.13166388903839
C         4.87494112030862   -1.84477223982105    7.39568328666608
C         4.72491004720589   -0.47671860198164    7.21637474484328
H         4.11111378458864   -0.11159562978659    6.40429679930765
C         5.36021307160710    0.40946559445574    8.07055788248627
H         5.24023212085167    1.47332392195950    7.92722135051086
C         6.15019866971850   -0.06692269576308    9.10178177749689
H         6.64527300474959    0.62327409424687    9.76938171258278
C         6.31632335679309   -1.43334330640816    9.27395925593021
H         6.94223331224774   -1.80577580177402   10.07220392586415
C         5.68831822273644   -2.32134696022806    8.42262225531507
H         5.83271843005201   -3.38670899245786    8.54370067956181
C         3.11738488703679   -4.13388796564643    7.32788899167612
C         2.43702534542668   -5.16635477989974    6.68207437799682
H         2.49599369391834   -5.23754225551760    5.60238583448685
C         1.66731212074679   -6.05406636091774    7.40688968020396
H         1.14552914828565   -6.85436803332479    6.90269495392176
C         1.55058968844251   -5.90544998280281    8.78050247433880
H         0.94455630412517   -6.59511490621559    9.34979039043568
C         2.19051609273665   -4.85767303748136    9.41857970287751
H         2.07870513811473   -4.72475772108249   10.48520118771210
C         2.96974931859790   -3.96785431875446    8.69734870323870
H         3.44824082600939   -3.14164994597008    9.20322085391291
S         0.94053087392055   -2.52072465321211    5.71887470339995
C         1.15149871606435   -0.86480067843595    6.09823692551539
O         2.09886627405540   -0.24620319473040    5.61617649300462
C         0.13457684783128   -0.22955910051727    6.99896060939458
H        -0.16592775352877   -0.92507505047535    7.77774183396524
H         0.54132095172485    0.68009715471007    7.43484550174568
H        -0.74433220978101    0.02438038613903    6.40666221049521
P         1.69471631875730   -1.41903980458227    2.90683828873320
C         0.21567665638927   -0.40113943928307    3.26794590543139
C        -0.96490906971986   -1.07107859293405    3.58515304235703
H        -0.98095685496426   -2.15203708527671    3.59389040231800
C        -2.10979732247372   -0.36256192770766    3.89622869052343
H        -3.01756024104720   -0.89350395227579    4.14345438923764
C        -2.09135659089728    1.02331635078763    3.89503180356177
H        -2.98524749263480    1.57783624410306    4.14100810069228
C        -0.92226171661645    1.69330010021636    3.57794735600637
H        -0.90259517445376    2.77350939738204    3.57305707741785
C         0.22785717870979    0.98749886063422    3.26849506544245
H         1.13262816428496    1.52322104477341    3.02514346390681
C         0.90208886051030   -2.59541465786599    1.76125827812783
C         1.05205235794444   -3.96346998473134    1.94060635570623
H         1.66569494000924   -4.32860297582934    2.75278917846283
C         0.41686227354549   -4.84964848134810    1.08633927052858
H         0.53682652967143   -5.91350665026194    1.22969275387265
C        -0.37297248733670   -4.37325359227455    0.05500385902040
H        -0.86792339433513   -5.06344170249944   -0.61269597355269
C        -0.53906599685627   -3.00683096315339   -0.11718454276180
H        -1.16486907931149   -2.63438753585192   -0.91550715688467
C         0.08885582931339   -2.11883117098527    0.73421845388406
H        -0.05554075740069   -1.05346933270558    0.61312862555111
C         2.65964193094611   -0.30631378039066    1.82923385178704
C         3.33978672003251    0.72628091938688    2.47507820084611
H         3.28061347337268    0.79756890016927    3.55474518064396
C         4.10954503521476    1.61400205177298    1.75032091324187
H         4.63114796986205    2.41440821640746    2.25453680034179
C         4.22655679940150    1.46525073767036    0.37674803395588
H         4.83267094086899    2.15489417557237   -0.19248193202650
C         3.58688481993500    0.41732719471972   -0.26134175995050
H         3.69897360311029    0.28428248644537   -1.32791824284532
C         2.80759076327469   -0.47249345674880    0.45982523925623
H         2.32925254503031   -1.29878838640900   -0.04604564175015

