49
CSD_code = MASXAH | q = 0 | S = 0 | Stoichiometry = C18H20N6NiO2S2 | MND = 6
Ni        0.00000438075249    0.72537178211055   -2.94928113031657
S        -1.33335467564732    2.60637991505928   -1.76449646164774
O         1.31018349518140   -0.49200856536859   -3.98825437295050
N         1.04876104484734    0.73800590463300   -1.47779640533470
N         0.50470960012585    1.32255169022681   -0.36235236255117
N        -0.92167044894827    2.64390491712764    0.84476223093000
H        -0.53211561815157    2.20951465725962    1.66890560811469
C         2.45300594981735   -0.85666507957505   -3.57721416267900
C         2.93949138003764   -0.59824809124683   -2.24994986235146
C         4.20620056071221   -1.08312365856526   -1.86699390437416
H         4.54985651858742   -0.88622384772804   -0.85969082969228
C         5.00101411501447   -1.77837965174115   -2.73485260828959
H         5.97034088327837   -2.13872705489226   -2.42558047598286
C         4.54632964539541   -2.02128147389527   -4.03888768977735
H         5.17630747626776   -2.57074378455093   -4.72497021048380
C         3.32296235551054   -1.57639445123862   -4.44762152371413
H         2.96494270142359   -1.76903861423373   -5.44853089906109
C         2.18053697155129    0.12535372199509   -1.30148887596419
H         2.61834582874723    0.17737938025870   -0.29927181921763
C        -0.56357815147999    2.15288334887242   -0.36415879163153
C        -2.11303457127009    3.42984440079926    1.04560224502773
H        -1.94938799010469    4.12200553987859    1.86985209046425
H        -2.31070642254089    3.98607965776007    0.13177932607309
H        -2.97937764131878    2.80009740899937    1.26617086752350
H         0.96434136307533    1.10955873529072    0.52342412229000
S         1.33337960729944    2.60639876650902   -4.13409417744401
O        -1.31019913989824   -0.49202689438738   -1.91030175938222
N        -1.04875516745163    0.73802017677366   -4.42076550679714
N        -0.50470209917111    1.32256074519426   -5.53621209527992
N         0.92166908024499    2.64390186611911   -6.74334764254094
H         0.53212308050626    2.20948972907084   -7.56748372330555
C        -2.45301060779797   -0.85669042318682   -2.32136228772663
C        -2.93948764323551   -0.59824658376438   -3.64862603464899
C        -4.20619083474909   -1.08312147720355   -4.03160307752784
H        -4.54983638561191   -0.88620618665758   -5.03890702174671
C        -5.00101336451396   -1.77838935850060   -3.16376289633697
H        -5.97033588237383   -2.13873414030418   -3.47305123080143
C        -4.54634570762867   -2.02130145524884   -1.85972308678810
H        -5.17632614635757   -2.57078335745154   -1.17365865218893
C        -3.32298254165075   -1.57642126274613   -1.45097066364173
H        -2.96497525861508   -1.76907673571561   -0.45005879361530
C        -2.18053478101678    0.12537340698147   -4.59707283606109
H        -2.61833792997808    0.17739701154745   -5.59929267577731
C         0.56359122460163    2.15288582790371   -5.53441836082188
C         2.11303240511897    3.42983997160701   -6.94419952234678
H         1.94940467500551    4.12194486963762   -7.76850159144121
H         2.31066989931813    3.98613984306284   -6.03040685025556
H         2.97939046334765    2.80008535633932   -7.16469717668300
H        -0.96433569626336    1.10956351716941   -6.42198644124531

