29
CSD_code = MASYIO | q = 0 | S = 0 | Stoichiometry = C8H12HgI2N4S2 | MND = 4
Hg        0.23971813565369    5.36969988532477    7.83535169556010
I        -0.09039341141329    3.53147131551042    5.91856213705188
I         2.38497323407439    6.27341414010311    9.08069677507778
S        -2.05471496438008    6.67324210083007    8.07043098126123
N        -3.60738722175786    5.00640952149776    9.53122506848425
N        -3.27098565657844    4.30954634263403    7.50338206470051
H        -2.88932656758157    4.24306370959024    6.56895700342264
C        -2.97489654059924    5.29170789237350    8.37813323679167
C        -4.27082404971492    3.81666693435003    9.38403996931114
H        -4.82717229722246    3.38319194388302   10.18855158908846
C        -4.06146704678535    3.37911512258734    8.12150403544282
H        -4.40073552661903    2.49799541202702    7.61881654240975
C        -3.49789387668628    5.76524278965053   10.74445233842209
H        -3.11102633811713    6.75492299851685   10.50218674770015
H        -2.80409945765721    5.27082319471354   11.42855373145870
H        -4.47572464087451    5.85615132556778   11.21601860106142
S        -0.70827398542870    3.45450194681221    9.96678559661396
N         0.72501494825031    1.29888718169508    9.18005058676843
N         1.90684430346511    2.80425724603185   10.20968043600140
H         2.16167280480816    3.67709798332554   10.64932552859270
C         0.66249707605988    2.51038717440901    9.77224873148512
C         2.02306483531501    0.85451649290213    9.22417527960164
H         2.30763900631008   -0.08293625837923    8.79437561566045
C         2.76068477563986    1.79090053180127    9.86126395567997
H         3.80473523341733    1.82477383709864   10.09017548779170
C        -0.37893146441936    0.61542872824590    8.56927288034569
H        -1.28557921369558    1.18170975382934    8.78115604361769
H        -0.47117515696118   -0.38971673055119    8.98062469859597
H        -0.23803693652902    0.55702748355965    7.48880264200860

