40
CSD_code = MATFAR | q = 0 | S = 0 | Stoichiometry = C17H14Cl2N6Zn | MND = 5
Zn        3.01668615842384    3.27640309080541    1.39266919595764
N         4.24420861494522    7.66332653885140    2.14810932507760
C         4.02776054933894    6.25626968850881    2.06497756796109
H         3.54023662129518    6.02545985962137    1.09254780808827
Cl        3.11976192397916    4.54752619209903   -0.47508191013521
Cl        1.25607420552085    1.93675051343359    1.63826556143088
N         4.89883601942615    8.23076115162417    3.16761469503474
C         4.21606121546906    9.81110510092429    1.72949927678718
H         4.05459252190803   10.77117857900919    1.28604202296919
N         3.12979563162001    5.78984259889900    3.10487975586406
C         4.88864713681401    9.52490090670304    2.92772178373215
H         5.35823386923013   10.20330237686329    3.61205676976547
N         2.47123965374071    4.64596426443238    2.93495552052350
C         2.85510066256059    6.33486159885379    4.30076824318392
H         3.30876321498309    7.25187767455400    4.61869282450204
N         5.06924057043242    4.11217716417180    1.97438818201215
C         1.95700385390706    5.49760612938655    4.92656075101781
H         1.51326796219199    5.62656114785653    5.89155021871776
N         4.44722593997394    1.60067336747606    1.41646712333587
C         1.75305211530908    4.45018468832122    4.02782796114655
H         1.12746611546941    3.58394327750158    4.11224247153479
C         5.28846846337950    5.41413075082086    2.06804735349953
C         6.56942306181214    5.94933362233783    2.08717628332773
H         6.72004640834672    7.01082047486971    2.18992746022949
C         7.64136436071270    5.07894369219636    1.97591823090298
H         8.65184355803842    5.45871409001165    1.97533776984113
C         7.40577382420747    3.72121207899908    1.84867929512308
H         8.22909376281312    3.03827772397352    1.72082379941351
C         6.08792530640978    3.26544006677397    1.86366038967158
C         5.72356351738757    1.84775216924457    1.71638852175387
C         6.64216640871064    0.81162846876882    1.87368081420083
H         7.66317490190784    1.01621481331155    2.15180682661811
C         6.22091438657259   -0.49471080292458    1.68863531237147
H         6.91692353994795   -1.31202367408323    1.80564705776870
C         4.89728426054620   -0.73079825258552    1.35775858066654
H         4.52772326468709   -1.73108856598526    1.20129852080246
C         4.04175428469005    0.35533104097530    1.24186333148141
H         2.99039346144621    0.23268830672838    1.02010451747553
C         3.81336116635201    8.58734405352481    1.25833122996117
H         3.27394750549071    8.30291403314083    0.37835955638600

