66
CSD_code = MATGAS | q = 0 | S = 0 | Stoichiometry = C23H28FeN6O6S2 | MND = 6
C         5.12268371454327   -0.02539650966023    3.12399581399685
H         5.42250188173100   -1.07379763263158    3.20036631041873
Fe        4.38934027997201    2.85559103869899    2.87855265276340
N         3.69699798144594    0.05520487653436    2.95860442713232
O         3.00797678082628    3.61898119443770    3.98255364024228
S         2.52904001186309    3.64265739920760    5.38219202665222
N         3.15151633981217    1.26424675439559    2.73844872422283
O         3.39480976955638    2.88075855504448    6.26843364073242
S         3.12142542308139    5.29786309638483    1.41746925206317
C         3.06595404787769   -2.32697183266820    3.38112979948006
H         2.14232146311596   -2.89627160150240    3.42561527094357
H         3.58140162112707   -2.43278797499084    4.33541979975698
H         3.69389696389711   -2.75070236517697    2.59692449583036
N         5.25633490450918    2.06516586840079    4.24891429782799
O         3.84688846622439    5.94961405933986    0.34070977130169
C         6.27880330292347    6.58592799038410    4.82655571914461
H         6.55335500960900    7.47145228390797    5.37972860185294
C         6.10178252399442    6.63135124147670    3.45173798995556
H         6.24093511561415    7.54489968029752    2.89823907515052
C         2.74772234522861   -0.90140158360994    3.10837683764672
N         5.75318060670373    0.56193191322063    1.96283037748245
O         1.13051849164096    3.26549491686743    5.44935705500367
C         1.54170774729279   -0.26189256403521    2.95350439048849
H         0.56689427119094   -0.70102264526666    3.00401029201737
N         5.58242618191588    1.87235829750348    1.68364740860743
O         3.46013822827951    3.84326550642485    1.41398787375169
C         1.84038565584041    1.09653488407666    2.72934690714724
C         0.89587117078084    2.20838662272752    2.52275702616456
H         1.39660778334591    2.96578921589924    1.93211744833050
H         0.66568311678791    2.64118327385046    3.49978272523916
H        -0.01938632540598    1.86312865488440    2.04771336415782
N         5.48200788703745    4.33162575610811    3.40092860755733
O         3.25277921194627    5.96469659693713    2.69621235970354
C         6.76679464039090    0.91153824671659    0.05737884464330
H         7.32444863865645    0.78247458159933   -0.84736316239706
C         6.18983097303574    2.10430814574299    0.53019989267027
C         6.22550667276355    3.44423096986650   -0.09870137666685
H         6.40680702953431    3.35319804451866   -1.16611401625231
H         7.02214285715752    4.04380665591333    0.33855866674798
H         5.27910163662423    3.95069936286399    0.07519701142450
C         5.50972059983369    0.75612153361562    4.36021355193000
C         6.08724337469739    0.19736539445831    5.47939139855815
H         6.25853512055224   -0.86675088306255    5.53769925154179
C         6.43898339475044    1.03864577242733    6.53413616042217
H         6.85386580844886    0.62945167806076    7.44091537693000
C         6.29216550635280    2.40416759466751    6.37482367809088
H         6.61398609861742    3.08298936215152    7.14657042979078
C         5.71750758029445    2.89723100144073    5.20833777710087
C         5.73768634223983    4.26039601170235    4.72949839351827
C         5.68979875302827    5.48670804241143    2.78584905948493
H         5.52962812700592    5.50234875314095    1.72189673887086
C         6.11911640610533    5.37342846182442    5.47186208576903
H         6.27350630173801    5.28098217927043    6.53512529122418
C         6.80681645179553   -1.50271694905562    1.01255273893338
H         5.90756310835713   -2.11789499970444    0.98226559649778
H         7.37265587008468   -1.75716520494708    1.90845419555228
H         7.41289001926938   -1.74193109369201    0.14377243920541
C         6.46568148030927   -0.05687967376544    0.98624013499460
C         1.36445497125573    5.38589284923522    0.97433207918618
H         0.79527546575834    5.13768889600694    1.85817633668311
H         1.17821950353603    4.69658583910178    0.16299795557835
H         1.17347168793998    6.40439246084747    0.66412007195362
C         2.63767999151921    5.38939341090244    5.83216533856742
H         3.45522985515130    5.51563308872354    6.52642097173433
H         1.69684452246537    5.68460104530337    6.27323454714208
H         2.82043923642317    5.90559445421451    4.89822855780230

