40
CSD_code = MATHAT | q = 0 | S = 0 | Stoichiometry = C17H14Cl2FeN6 | MND = 6
Fe        5.54561150517467    0.73162304605524    3.19245337941945
Cl        4.95815108197347    2.80879946023695    2.89091155071991
Cl        3.94980512958562   -0.05970504616551    1.98810942225568
N         6.87623421471116    1.23182206571052    4.29806146489215
N         4.49965046914589    0.86857401072843    4.81867346276388
N         7.62253780265265   -1.18701266858618    3.18943075080514
N         6.29644788214458   -1.07210678868305    3.35259497848572
N         7.96795100213615    0.58700068275043    1.71045886521229
N         6.67932240074769    0.92354528777631    1.61620398932388
C         8.41765114291668    0.00096654956255    2.94686384899604
H         9.47160109524515   -0.27893704652082    2.86127305699551
C         8.17810048376742    0.96182547840608    4.09679999179123
C         9.17417138643001    1.44381613992018    4.91274240227257
H        10.20920777647713    1.22042384414499    4.70520545496319
C         8.81651686109876    2.22961834188988    6.01143820668581
H         9.57652407532751    2.66298323186269    6.64033228785002
C         7.47405818648589    2.38114894203830    6.31059809183394
H         7.16918338826395    2.90410549033644    7.20238330161830
C         6.51575041596878    1.84286757396742    5.46053644749924
C         5.10117872469769    1.68941976672846    5.71592174625586
C         4.40122912304665    2.23255434339114    6.79112894856709
H         4.89898765965503    2.90397314332987    7.47208029924139
C         3.06475082465776    1.92300655120687    6.94892204016269
H         2.49734656703832    2.34565025222085    7.76401316407226
C         2.46366411204950    1.06721526814241    6.03396968384814
H         1.42170866313220    0.80456005845282    6.11774746323878
C         3.21828374691641    0.57019779064003    4.98674427342734
H         2.78791735899929   -0.06642123438341    4.22677181665832
C         8.00136990031648   -2.48269494825696    3.24518252434046
H         9.02578720499748   -2.77651514179151    3.13594795844244
C         6.86474305540521   -3.22452224507197    3.45523779626985
H         6.79186853990068   -4.28759904439165    3.55115869064254
C         5.82215634554829   -2.29169699965984    3.51115199909429
H         4.76986214530107   -2.44129725349833    3.63598457437882
C         8.62391933868203    0.85583458534636    0.55973877232380
H         9.66960089177951    0.65300407025357    0.44506372168272
C         7.70212266815741    1.39562015565470   -0.30256013266827
H         7.86895784577476    1.73122520814560   -1.30466880805874
C         6.49453487457073    1.41565420156993    0.40754632150304
H         5.52473410914515    1.75557287660494    0.10524619220447

