73
CSD_code = MATKIE | q = 0 | S = 0 | Stoichiometry = C32H26Cl2FeN10S2 | MND = 6
Fe        6.15336151892937    4.88335189630516    0.66833105722761
S         8.99016618820931    7.72672825759959    2.54233717605581
Cl        1.57405385241400   -0.36014806409838   -1.25733576957654
N         4.20093861687429    4.51676123947066    0.71798054374588
C         3.54349369129981    3.40246092629600    0.23367932573631
S         7.03076247556826    6.20801552469662   -3.46961360365630
Cl        3.77432544392422    2.33065231491648    6.97641580051782
N         3.54886197607183    5.22408047531644    1.58977940364027
C         3.81766106503023    2.91797027269326   -1.04831886515439
H         4.49066864217893    3.46450696297472   -1.68904779555652
N         5.57183556544224    6.11780237118675    1.89770304962173
C         3.21098130960744    1.76807859897386   -1.50713182554915
H         3.42198768380461    1.39733703122624   -2.49788378088912
N         6.40013867448809    6.98840723054889    2.46071415790299
C         2.31785486170310    1.08954653753274   -0.68939909462110
N         7.93251415204562    5.71895281363582    1.27116280586566
C         2.01433291308676    1.56731517818804    0.57787070893304
H         1.31352336039443    1.03485012924939    1.20157457354327
N         6.26780462134281    3.19947679363332    1.72187119922430
C         2.61987968320935    2.71761736961660    1.03444644362288
H         2.40847766020083    3.10216477051952    2.01992048916283
C         4.26791766310796    6.13961927581972    2.20454771082066
N         6.56416918934972    2.15105635069606    1.01362392781916
C         3.65125748780935    7.08941592790985    3.18236668556166
H         4.46018865491094    7.56292907043623    3.74110830715166
H         3.11341874981442    7.86801153552402    2.63392281914133
N         6.73637611654239    3.69198029898782   -0.59571890126395
C         2.68519153051892    6.37073557969135    4.11955222388268
H         2.25294450353667    7.07683235736646    4.82399124326279
H         3.20306380632120    5.59293434428159    4.67564378782740
H         1.88630409004978    5.90935623752112    3.54625159777205
N         7.00403111364241    4.06310532011374   -1.83952178309322
C         7.63723486467314    6.74122203559194    2.06540709089281
C         9.26283441584548    5.66791838171461    0.98288588348102
N         6.20229329974726    6.07370911572171   -1.00752301739342
C         9.89956870699991    4.72558174597784    0.18000950101395
H         9.31764552715824    3.94243843342958   -0.27578300624546
C        11.26189960317204    4.82056123694732   -0.01016128021096
H        11.76166226786366    4.09490413129753   -0.63380550025191
C        12.00360996203670    5.83514917875868    0.58924802267450
H        13.06870351927072    5.88748319350051    0.42492744892598
C        11.39158833601867    6.77732647436265    1.39544707734640
H        11.95668623167221    7.56566482807577    1.86657846117094
C        10.02514468668027    6.68862312402153    1.58585957791498
C         5.73053583839877    2.96278919148040    2.97050390835515
C         5.88391641545315    3.90408453784665    3.99274723616836
H         6.48883505748381    4.77939864208113    3.82042296990171
C         5.29124683429329    3.70757098911440    5.22186646244253
H         5.41577390643258    4.43373745186820    6.01012545679183
C         4.53711395792362    2.56345946939156    5.44529543387794
C         4.39273929965670    1.60552206678708    4.45129686771288
H         3.81030321906646    0.71728669766408    4.63941391391426
C         4.98926041138582    1.80101741111570    3.22467372734790
H         4.88341064191910    1.07502205235008    2.43389315773535
C         6.86852272661094    2.40512069941443   -0.24111624510869
C         7.28915708212780    1.31557060042591   -1.17491169932720
H         7.06650601620817    0.36202335724419   -0.69684927088262
H         6.70313052533877    1.40632611212639   -2.09197278908818
C         8.77548342230236    1.39907917140516   -1.52535051698291
H         9.04884530788227    0.57325281334873   -2.17722195172110
H         9.38320887611247    1.34595003308221   -0.62465457458190
H         8.98324822812904    2.33117155836803   -2.04516148418483
C         6.72932520840179    5.34829420302422   -1.98722577400913
C         6.01982310939399    7.37255659868483   -1.37847194513027
C         5.49545721822324    8.39684083938600   -0.59331796149758
H         5.19054655684938    8.18987800642585    0.41930525499621
C         5.38345162568995    9.66138290717244   -1.13189759888982
H         4.98202935023768   10.46013741977744   -0.52702006251611
C         5.77808443938881    9.92641424761123   -2.44044098136172
H         5.67909652467185   10.92477112731213   -2.83741896590983
C         6.29570129586387    8.92336153594350   -3.23881529800785
H         6.60351828251449    9.11559562538299   -4.25423325165418
C         6.41467033948374    7.65489782592739   -2.70217789639514

