143
CSD_code = MATREG | q = 0 | S = 0 | Stoichiometry = C60H78Cl2P2Pd | MND = 4
Pd       11.85390570807081   -0.00034398793796    6.41594995120219
C         8.24883176464064    2.52175024531143    9.49691649617084
C         7.42558540113600    1.38650071454167    9.48198483665243
C         6.07991352983385    1.53282930650984    9.18607105137359
H         5.45033932726835    0.65429250933087    9.15963009109125
C         5.51754631021234    2.77648888401722    8.92960739374771
C         6.33016423133694    3.89326725827244    9.01881147335763
H         5.90883335948190    4.87689107302300    8.86279577249806
C         7.68305355676215    3.78454689598969    9.31516491878833
C         7.95265161096234    0.02745764429937    9.83648942473856
H         7.86023883371774   -0.12949490851698   10.91274604200753
H         9.00082763235809   -0.09619347616079    9.57468892065696
H         7.37304145557048   -0.74916772626560    9.34206573285614
C         4.06358987670776    2.89209284053182    8.58496095651040
H         3.85183463022044    2.36187733857046    7.65657820336730
H         3.77270087342276    3.93261265081639    8.46372947532105
H         3.45040612995037    2.44731661187937    9.36764301753083
C         8.48874403253145    5.04215388519754    9.46263899612609
H         8.40671316538178    5.66156445932654    8.57026438878621
H         9.53624085483254    4.82270539758352    9.64291071050447
H         8.10621527563646    5.62477733635426   10.30111168157284
C         9.67998884000488    2.34581946081575    9.80239331828198
C        10.74235126517588    2.06254320834085    9.00992846425214
C        11.89311844472921    1.77242830217162    9.86809161310995
C        11.53227422506245    1.97248399056449   11.20557867292813
C        10.08882469799647    2.34665935316807   11.25714744878471
H         9.91397692454973    3.32432640281101   11.71385674841287
H         9.50665762573511    1.61885043927046   11.82623755633854
C        12.44304561127038    1.77396461520356   12.22121258644614
H        12.16697116839624    1.93303305801901   13.25378937442759
C        13.72075637727500    1.34634529196077   11.88947838795116
H        14.45029753296447    1.18500395088537   12.66960728995572
C        14.06290736816920    1.09179762989381   10.56934973415950
H        15.05532306686580    0.72968124460556   10.34248465538310
C        13.15256796908622    1.29405656486232    9.54628642035149
H        13.40249340188769    1.05182573402282    8.51540873128172
C         9.29559325982191    2.19419321879832    6.47528464938365
H         8.70002019680070    2.81830025521571    7.15067516861109
C         9.31776972768835    2.82707054247470    5.08413913990759
H         9.73449039153231    3.83493919968824    5.12220338161986
H         9.94249902025288    2.22471808074808    4.41722109889554
C         7.89631085289437    2.90869024788093    4.53032302341718
H         7.29236468525566    3.54367387691425    5.18472074580526
H         7.91666585610172    3.36925984352002    3.54019260548935
C         7.26263837476909    1.52508813642110    4.44695079799691
H         6.24409310744371    1.60210770292208    4.05983493963860
H         7.84190624535318    0.91258369742810    3.75329911465689
C         7.25490781032771    0.86552980704718    5.82163292490210
H         6.83558199295028   -0.14086398355663    5.75378692032093
H         6.62843516266579    1.44552874964854    6.50385471153495
C         8.66981960705160    0.79862489957528    6.38154210103494
H         9.29938496095138    0.18445543698608    5.71224323240073
H         8.66204340357318    0.32539608903882    7.36491559780014
C        11.92577825123483    3.49476465025855    6.77314989283966
H        11.82607823763461    3.54889941141141    5.68176776465244
C        11.35834404445018    4.75842868896106    7.40653475707402
H        11.51063330206305    4.71633030071277    8.48827488388531
H        10.28670345970530    4.83375266114291    7.21503297686868
C        12.07425591747105    5.98521257014120    6.84532532206857
H        11.89146514777178    6.04906871142648    5.76989685064095
H        11.67441502090535    6.89088069371638    7.30765278512797
C        13.57624051536213    5.89043762568420    7.09683965925007
H        13.76252472323414    5.89624739656272    8.17386595200682
H        14.08014055891611    6.75817690590154    6.66592983425535
C        14.13978606757419    4.60622115941154    6.49525265052144
H        15.20922107971099    4.53611447362151    6.70495390398918
H        14.01070043263571    4.61996436357976    5.41095823302513
C        13.42033360578468    3.39027722012574    7.07279506155751
H        13.82109701905455    2.47694579267946    6.61858157863692
H        13.58853576199186    3.35778696271602    8.15190000608520
Cl       12.57661284511128    1.08719280724789    4.53285647457235
P        10.98276599905309    1.95194822410399    7.21466013360570
C        15.45921572339208   -2.52115003562475    3.33448641233578
C        16.28215574111660   -1.38567025691327    3.34919743273286
C        17.62793789622962   -1.53160197889122    3.64480397785614
H        18.25725842321839   -0.65287837974484    3.67106989538921
C        18.19073396647302   -2.77508623098135    3.90116283058416
C        17.37840413993215   -3.89209008074326    3.81220740924595
H        17.80004240855166   -4.87559406244108    3.96815071503747
C        16.02540945454240   -3.78376582594097    3.51618345432854
C        15.75467740448073   -0.02675708528936    2.99479408108675
H        15.84710742806416    0.13033014054696    1.91855897274411
H        14.70645812939101    0.09656324807199    3.25656647597291
H        16.33402921394562    0.74999724617131    3.48931942513656
C        19.64482486661599   -2.89026338197221    4.24538286776476
H        19.85683472626043   -2.35944916064387    5.17336223135179
H        19.93591645621106   -3.93066648617602    4.36712690162680
H        20.25766018467945   -2.44587306863929    3.46220600124059
C        15.22008554571308   -5.04164108703590    3.36899058305414
H        15.30212625695111   -5.66071782547585    4.26159808291792
H        14.17255939630102   -4.82254637687158    3.18845886584113
H        15.60293088491518   -5.62445696949238    2.53079858528370
C        14.02795423918534   -2.34563699187844    3.02921752352095
C        12.96556628796397   -2.06281751793073    3.82180185985475
C        11.81465251259128   -1.77283745569741    2.96380300650880
C        12.17544411339037   -1.97249970468887    1.62624742692270
C        13.61899169925307   -2.34628282751419    1.57449341630209
H        13.79404202817111   -3.32382321032425    1.11759001351274
H        14.20094123442752   -1.61822273621727    1.00550469911624
C        11.26452789381080   -1.77400354006274    0.61074046403392
H        11.54055943423850   -1.93273682157598   -0.42189865293138
C         9.98672821225765   -1.34679341319291    0.94267573482246
H         9.25708125736814   -1.18547906190563    0.16264012191286
C         9.64459198252626   -1.09269194065271    2.26289402132042
H         8.65209175467819   -0.73092194384515    2.48995065334717
C        10.55508371565500   -1.29492558711537    3.28582832700056
H        10.30515048479194   -1.05305504287463    4.31678896992271
C        14.41246905566236   -2.19436391420399    6.35635789866120
H        15.00803288071881   -2.81860797744807    5.68108267042000
C        14.39041453079015   -2.82687756634947    7.74767930862091
H        13.97378041491917   -3.83479503298173    7.70991243315703
H        13.76563457876876   -2.22439937321415    8.41444204235363
C        15.81188297712088   -2.90823123926800    8.30150203336647
H        16.41584623342677   -3.54339916006098    7.64730052398338
H        15.79157365353372   -3.36847542900661    9.29178482057783
C        16.44549498663663   -1.52457082554053    8.38439324221536
H        17.46405718522379   -1.60141679119406    8.77149423294877
H        15.86623071473904   -0.91186441723416    9.07786672279946
C        16.45312181121092   -0.86543110856094    7.00951197949963
H        16.87241706324297    0.14099844758006    7.07702194466610
H        17.07956406544653   -1.44561786885749    6.32742175282057
C        15.03817106469653   -0.79874131755975    6.44968797923782
H        14.40862001600997   -0.18441821361713    7.11886561550753
H        15.04583399504575   -0.32577500646990    5.46619413721155
C        11.78271300526252   -3.49548634348720    6.05858673661762
H        11.88239070110743   -3.54961478876981    7.14997634425693
C        12.35061170721205   -4.75896850591913    5.42523179341252
H        12.19833727425638   -4.71692580177246    4.34348843662286
H        13.42227401589613   -4.83389711529742    5.61675132714598
C        11.63518344951469   -5.98605385588862    5.98639432520259
H        11.81794731588182   -6.04984188694122    7.06183145657313
H        12.03538880796190   -6.89157193979168    5.52408373656385
C        10.13317781709304   -5.89181636142521    5.73481574272373
H         9.94694808351912   -5.89762370096770    4.65778027441374
H         9.62957778589707   -6.75977148443181    6.16563452478533
C         9.56911691683924   -4.60785309472057    6.33646080303719
H         8.49964891683488   -4.53816026292169    6.12678698674016
H         9.69823664430133   -4.62159397008785    7.42075121520332
C        10.28811094906309   -3.39161933383654    5.75894997513040
H         9.88698669444946   -2.47845795567068    6.21317865205545
H        10.11989192918203   -3.35916461825403    4.67984685275181
Cl       11.13081314346528   -1.08786750887811    8.29889171079591
P        12.72523579347584   -1.95236984282670    5.61707757020874

