76
CSD_code = MATSOR | q = 0 | S = 0 | Stoichiometry = C35H31NO3P3ReS2 | MND = 6
Re        7.51105052663086    6.70301540868583   12.58127611788392
S         6.00957171908797    4.79431383504431   13.48089178889753
S         9.20022568556654    4.81462238309664   12.06641155875037
P         7.03079953727863    4.23158169241377   15.10626028861090
P         9.71619427225097    4.20631293751386   13.90322286171476
P         6.64193727579543    6.08069443818520   10.38898187100564
N         8.57156861384561    3.77093362797148   14.95721407329405
O         8.77988608658666    7.35728659601113   15.32526708051530
O         5.22439785380299    8.71999257416585   13.11859755639809
O         9.46847919854292    8.75613187224761   11.34416002825533
C         8.29321754078406    7.05262191557570   14.33025272617021
C         6.08605403809602    7.98920358705855   12.91196043049047
C         8.72083579039110    8.01396475728144   11.80325074169935
C         6.85368338983598    5.44939039221568   16.45013586789138
C         7.61835773171287    5.25159414273275   17.59167733835169
H         8.28889117477766    4.40445160787114   17.63635533102896
C         7.51754968859571    6.14251435542924   18.64213440393921
H         8.11516599039482    5.99922740036108   19.53064505642933
C         6.65205185110301    7.22188316643324   18.55241253232945
H         6.57947867930202    7.92108013996735   19.37253093031582
C         5.88419256672494    7.41087654041985   17.41557057713209
H         5.21378031780495    8.25452530803126   17.34565037428481
C         5.98112078944770    6.52324056161522   16.35922275108433
H         5.39788917378735    6.67170072902406   15.45873645248186
C         6.18082805270865    2.77776413453729   15.77050947247265
C         6.87325255269966    1.61546774697767   16.07222493224396
H         7.93858352156186    1.57264889254474   15.89617890641692
C         6.19106945342432    0.53063167909640   16.59388283305201
H         6.72554568222968   -0.37858519859014   16.82860117987817
C         4.82620253986896    0.61060443405851   16.81555659456288
H         4.29626759274878   -0.23835663481846   17.22220422009386
C         4.13687041417099    1.77647371906454   16.51855809752256
H         3.07274989918899    1.83627724795470   16.69411059163917
C         4.81279985467697    2.86288074446007   15.99754116276893
H         4.29057475922715    3.77907069884105   15.75558883264760
C        10.86640770530274    5.37606378458480   14.69017789145657
C        11.17065106319955    5.17614172266183   16.03004317172599
H        10.73050318895719    4.33682020555617   16.55045610503689
C        12.02079595000365    6.05393604206133   16.67396374918533
H        12.25775323148133    5.90777833229192   17.71778481205152
C        12.56352520649409    7.12509530855940   15.98090027243792
H        13.22169161010876    7.81483066456173   16.48865346240920
C        12.26149382358522    7.31897980857446   14.64323724338846
H        12.68104809415833    8.15674167523903   14.10636131605403
C        11.41056435734608    6.44416460212712   13.99227628480085
H        11.15576550165335    6.59319642595306   12.95045622696862
C        10.67525057503838    2.69317904634980   13.63692281387334
C        12.05713431383781    2.73447921855878   13.51739744246931
H        12.57771490841556    3.67617176341567   13.62993034395662
C        12.75460801514594    1.56822075106809   13.25930093562432
H        13.83087027120199    1.59456332274289   13.17027966250132
C        12.07492368480016    0.36954730652910   13.11357657785421
H        12.62383042580301   -0.53888456122228   12.91291350175141
C        10.69359364522147    0.33281137189518   13.21923898646617
H        10.16479591033727   -0.60142819139878   13.09752102586732
C         9.99185696215138    1.49541085408775   13.47678609465910
H         8.91281487032586    1.48809978687956   13.55644744692010
C         6.29291905913380    4.31256690726122   10.11283978209178
H         5.93505090834846    4.17159514933649    9.09176869676365
H         5.53954918418957    3.97571020508902   10.82410627128471
H         7.21412250756785    3.75112105373721   10.27304842195116
C         7.78135112974931    6.44523147146196    9.01460268912729
H         8.71922755156841    5.92893178396064    9.22716187656011
H         7.97346012356450    7.51698943698020    8.96885857993763
H         7.36980523509254    6.08755122617369    8.07040638503859
C         5.05515480887009    6.84002155868834    9.94310643768631
C         4.00278339365276    6.62559026454149   10.83084290021356
H         4.17691179528066    6.03506078235378   11.72252990097552
C         2.75866721629171    7.16868578702929   10.57923051241879
H         1.94539068940454    6.99943740127775   11.26934597209279
C         2.55867939943364    7.93835325915368    9.44372947274389
H         1.58766109249004    8.36814575922904    9.24649095110728
C         3.60537975651867    8.16444083440557    8.56666508811660
H         3.45069418027383    8.77167106318153    7.68650478238733
C         4.85447800577922    7.62005103883407    8.81280934495426
H         5.66609683360321    7.81078834274653    8.12685100485818

