79
CSD_code = MATXUB | q = 0 | S = 0 | Stoichiometry = C40H30ClF3N2P2Pd | MND = 4
Pd        0.25828964997620    4.90117825008254   10.77530691907094
Cl        0.91562502901668    4.52360402411407   12.93257166872030
P         0.27368857391181    2.68961316881355   10.36425500316030
P         0.44981729596873    7.08260513684643   11.26032843480724
F         1.55585219474238    5.45190204269183    7.60844244912315
F        -2.45350333931303    5.80730493855087    5.59418146602769
F        -2.38805533237724    5.09686529938684   10.05948740907856
N        -0.45346167933382    5.63823858984590    6.58716168792211
N        -2.46419837266824    5.46224286838398    7.80841351151928
C         0.12604820297611    2.20660204498963    8.61840203836440
C        -1.14419525628119    2.19912912530267    8.04456535574324
H        -2.01513373628935    2.33918304618454    8.67317964441112
C        -1.28967496391597    2.02084398253905    6.68242967349771
H        -2.27596203147156    2.02330475674647    6.24260307517190
C        -0.16982833059306    1.85562007561511    5.88216366175217
H        -0.28411534356768    1.72950126934514    4.81624302184971
C         1.09402460722547    1.86138330859641    6.44815874248118
H         1.96632070852886    1.73643504442059    5.82405904429681
C         1.24633512909208    2.04323670496481    7.81132345774199
H         2.23379927770984    2.06365502331629    8.25246690866589
C        -1.06053530828580    1.77266547876919   11.17020628588596
C        -1.32883181348614    0.43646182467314   10.88468171265129
H        -0.73002693100553   -0.08981342445667   10.15288319306823
C        -2.37547772355751   -0.20003384548342   11.52539154919413
H        -2.58537154327018   -1.23783998229271   11.31092319594012
C        -3.15971181213429    0.49210893522500   12.43611582735495
H        -3.97683204394904   -0.01217094787213   12.93061625258333
C        -2.90639414436532    1.82726328823307   12.70503781963658
H        -3.52742252767050    2.36568271713097   13.40516698772876
C        -1.85824524668472    2.47015462461619   12.07167657523121
H        -1.64015402181111    3.51861593244436   12.27062634062137
C         1.86150268045517    2.01151634307166   10.91500767260255
C         2.03719158861350    0.76579005807297   11.50009814819207
H         1.19208203039090    0.10886194604143   11.64697915919035
C         3.30046433583404    0.38382856630365   11.91939933435210
H         3.44037869438517   -0.58134909227182   12.38380462679376
C         4.37919406190052    1.23728158276439   11.75932551407820
H         5.35885286161732    0.93476995796869   12.09872533883409
C         4.20313302721241    2.48553185884500   11.18107005359755
H         5.04294007204111    3.15580301371262   11.07257226436804
C         2.94595116949182    2.87480954279992   10.76357036480421
H         2.77826108690429    3.86403576675567   10.33132258732466
C         2.18589049082761    7.29853206935765   11.72594787647107
C         3.08568991914787    6.67616421068243   10.85801604671190
H         2.70362180834834    6.18106769492915    9.96181795328919
C         4.43841559701808    6.69640464904932   11.13411335758276
H         5.13652327026898    6.22008097288529   10.46098843463923
C         4.89608447081625    7.32151410416725   12.28500941628850
H         5.95260810127934    7.32898226788951   12.50933072458626
C         4.00191891642130    7.92038405563889   13.15568019992325
H         4.36152063290948    8.38951420978628   14.05976088373381
C         2.64364035093581    7.91095724949566   12.88273027847331
H         1.94432850921306    8.35540321723596   13.57601705572690
C        -0.62693907001330    7.71937302924071   12.56418463351713
C        -0.56493308252003    9.04407559725786   12.98667323679694
H         0.15549895135354    9.71797882981887   12.54185336133031
C        -1.43671326489312    9.48769424266600   13.96352851490459
H        -1.38859964183935   10.51233149004253   14.30248285968790
C        -2.37564409500800    8.62190556798197   14.50420875707812
H        -3.05258319614283    8.97564659540196   15.26788462996841
C        -2.45607579442340    7.31121703471230   14.06265734123414
H        -3.19852340850984    6.64534719002177   14.47651419553568
C        -1.58395703536631    6.85833704313850   13.08944388295135
H        -1.62910936803731    5.83295762272700   12.72680981330756
C         0.16088336840488    8.27087435084023    9.91200001310269
C         1.17705249813942    8.90704944716116    9.21099221805024
H         2.20560794838830    8.78956146423736    9.52286627751288
C         0.86853422880884    9.69141994095966    8.11260778592260
H         1.66091342878812   10.18421284142947    7.56881370739638
C        -0.44628635588058    9.83690001992306    7.70459050867610
H        -0.67993194125384   10.43934622019441    6.83974620679352
C        -1.46446835649742    9.20627858229859    8.40371690587116
H        -2.49067689235725    9.31683345272452    8.08633968211146
C        -1.16264018662591    8.42558145676973    9.50164616583183
H        -1.95063200567802    7.92577079563561   10.05334050251391
C        -0.35207140989721    5.25882105274230    8.95337352429634
C         0.21819847559018    5.45245280654405    7.70824386151375
C        -1.75970466959976    5.62921440849901    6.70946892256037
C        -1.73056196872764    5.28269137061844    8.88775628640807

