36
CSD_code = MAVGAR | q = 0 | S = 0 | Stoichiometry = C16H14MoS5 | MND = 12
Mo       -8.59072468586213    4.19491075802878  -10.68717246715453
S       -10.45653504400262    4.34393451346027   -9.15394367569781
S        -9.15708715694320    1.84408806782369  -10.65952179335296
S       -11.21873443294325    0.10680135348827   -9.27627120707950
S       -12.41149224265840    2.40134712988747   -7.89423086474007
S       -13.52738431673087   -0.31897039072143   -7.45164803239375
C       -10.50794420959020    1.67389011911366   -9.58423271110526
C       -11.05625785393523    2.72909184715260   -8.94875641179702
C       -12.44930981123336    0.67149460964652   -8.16545033488593
C        -7.95849396487676    5.56552770119662  -12.37734610260067
C        -9.18943833080777    6.06158107316293  -11.84739165826845
C       -10.20609595639309    5.13433917670717  -12.17988522923287
C        -9.61887329435520    4.05000718999432  -12.84912626081698
C        -8.22707643486092    4.28023362395390  -12.94228726862971
C        -7.28886396550064    5.62889979042727   -9.48856257150541
C        -6.58797435094121    5.25319322383619  -10.67589162558171
C        -6.33364527423511    3.84898442668790  -10.59212225633897
C        -6.78063966963849    3.40407120987863   -9.32691845393295
C        -7.36498615508838    4.48790915559130   -8.65430672907315
C        -6.57983155597011    6.05649546491793  -11.96629797447654
C        -5.47026030534363    5.64524854581554  -12.93469745062727
C        -6.51120987881998    7.56765102189901  -11.74348692893867
H        -9.37569501856754    7.05235959977278  -11.46593467854106
H       -11.26745861839338    5.28396180886640  -12.02864057457360
H       -10.15060450642931    3.21936960826344  -13.29489347818429
H        -7.55275152045560    3.68105117265825  -13.53233829049899
H        -7.52299302404330    6.63050017810238   -9.16633113653652
H        -5.72013354886425    3.26351338850981  -11.25749431280985
H        -6.62133562508291    2.41604601023474   -8.91478796169439
H        -7.72601384543435    4.47814188468815   -7.63385609819955
H        -5.47190144860617    4.57755725031608  -13.13204741197331
H        -4.50188041300693    5.91370723167527  -12.51792780747547
H        -5.59697182252531    6.16726361974892  -13.88071015208451
H        -7.28077000202346    7.91753153292559  -11.06212923183013
H        -6.63511333941360    8.08439588673342  -12.69274947117202
H        -5.54131837642293    7.83337121555554  -11.32851138619609

