36
CSD_code = MAVGEV | q = 0 | S = 0 | Stoichiometry = C16H14S5W | MND = 12
W        -8.56774291687313    4.22204093609197  -10.69536015418020
S       -10.44476268767177    4.36483214869612   -9.16225412201951
S        -9.12654494872831    1.86024776511933  -10.69198476251269
S       -11.16479000532016    0.11451070260299   -9.28749821214256
S       -12.36581800497908    2.39515983719815   -7.89524346853015
S       -13.44993831376070   -0.33605893046311   -7.43925151710130
C       -10.46938409802986    1.68790875500803   -9.60272636305080
C       -11.02251182055886    2.73846007219533   -8.96131306486729
C       -12.38913926626858    0.66554045208500   -8.16454525351521
C        -7.94741739211779    5.57795983040313  -12.37589981413628
C        -9.17936242599752    6.09101022883998  -11.84417997223285
C       -10.20589282373997    5.16784055209257  -12.17477776383134
C        -9.62744141432730    4.07251789270977  -12.84524527349970
C        -8.22827971460284    4.28986464055359  -12.94634650898885
C        -7.27855313423550    5.63932937764203   -9.46521249725243
C        -6.57291150487551    5.25161830239241  -10.65498402775610
C        -6.32663743945721    3.83884838802513  -10.56806724924234
C        -6.79288009304781    3.39991886192296   -9.30150687129184
C        -7.37236431676345    4.49475845123408   -8.63090158067817
C        -6.56156288930790    6.05172645950214  -11.95248753855388
C        -5.45249117103016    5.62684210153078  -12.91593799199216
C        -6.47722326092794    7.56277056594713  -11.73243849243639
H        -9.35583664558333    7.08673710127890  -11.46702456029492
H       -11.26604084488211    5.32108245037372  -12.01519086487927
H       -10.16983152823797    3.24501041037529  -13.28561843688288
H        -7.56175637430610    3.68843452132185  -13.54549326533262
H        -7.50120061478631    6.64538937164219   -9.14368671721432
H        -5.70612521551225    3.24899987451488  -11.22553289914846
H        -6.65095411966034    2.40974381460955   -8.88636065857768
H        -7.74774349613313    4.48476441062276   -7.61507304090158
H        -4.48249600485213    5.87683929441996  -12.49190440107381
H        -5.56407395711597    6.15485772179741  -13.86024470773999
H        -5.47173025995902    4.56029233548868  -13.11779164217443
H        -6.59439006438764    8.07923327813822  -12.68252909401920
H        -5.50554691899720    7.81899218943736  -11.31626120134848
H        -7.24442431296476    7.92137583464905  -11.05312601059959

