29
CSD_code = MAVGUL | q = 0 | S = 0 | Stoichiometry = C13H12MoO3 | MND = 10
Mo        0.49119244598813    7.45461675345936    2.58967065375217
O         3.59346015803811    8.06949849620006    0.44698182750635
O        -1.15871224317584   10.02792864741455    2.15545502216641
O        -0.34832469077609    7.82760349696343    5.51245704811607
C         2.75461743410757    8.61998036218220    1.11450207095343
C         2.31799077059939    8.56576428228850    2.51003237963382
C         1.30133503085199    9.64015678630233    2.30225869925189
C         1.77180786758486    9.76719508522495    0.83897401685702
C         2.49485646614702    7.84520351466838    3.71307564826291
C        -0.32460662521254    9.22370210879247    2.35647484172490
C        -0.02800674197675    7.72118291464569    4.41690423372888
C         1.12994876133108    5.51860421589320    1.46586874726454
C         0.69049590391229    6.42779580962065    0.47925392726184
C        -0.67254649945509    6.68356518208551    0.70104733990917
C        -1.08480502492147    5.95622577871993    1.84355288656711
C         0.04470014916914    5.22029043279498    2.31704460595577
C         2.60890515146875    8.57420348769511    5.02806706112116
H         1.34724229450701   10.53558733977608    2.93031093663575
H         2.28309955028769   10.70258077243371    0.60628597148205
H         1.00694164247813    9.58609280163542    0.08273916379263
H         3.19382295934083    7.00560067372467    3.64705272497596
H         2.10160626345769    5.03884810904186    1.48524713993028
H         1.26437012400388    6.73636141680285   -0.38268314432543
H        -1.32625702809360    7.25778412387628    0.05912273909584
H        -2.11160009248882    5.79857188342852    2.15653144642308
H         0.00811483278236    4.42024419669253    3.04702986371769
H         2.33734420316040    7.92570115375404    5.85838058211676
H         1.97217095767027    9.45887429150354    5.05677138331873
H         3.64573597921350    8.88653588237949    5.17639018280327

