52
CSD_code = MAVJAU | q = 0 | S = 0 | Stoichiometry = C20H28CrN2O | MND = 4
Cr        0.35068500932408    4.09393830111140    4.30941977192940
O         3.07395310539937    3.50806299335455    4.62614026717457
N         1.92427287657762    3.74483325946080    4.48452751818623
N         0.03685483358426    5.43471320350416    5.43554503285107
C        -0.42670198475165    2.26702606126834    4.96031493447671
C        -0.54877061112334    1.98208605669460    3.54409659930758
C         0.52876202050944    1.42786423674818    2.82310182430258
C         0.44879458497497    1.24789611401660    1.45682856405082
C        -0.69611367821809    1.61715214207024    0.76436274993918
C        -1.77507069184392    2.15019724848680    1.45445056565936
C        -1.70684020481929    2.33180407194504    2.82154490850889
C         0.43078941329471    4.87051332584436    2.34853906916394
C         1.62847315428932    5.68495564918904    2.13237900926813
C         1.60921120403065    7.07725943484656    2.24474859884868
C         2.75925417575641    7.82569914198704    2.08385550791536
C         3.96132148899079    7.20321427767783    1.79557274525158
C         3.99734011390957    5.82399039926790    1.65652066369041
C         2.84872311478876    5.07772647346435    1.81393682052183
C        -1.36844196110811    5.69801799404676    5.28237443236117
C        -1.66404136593960    7.12824897412312    4.81117733070789
C        -2.17354819214159    5.36812434608871    6.54846460013612
C         0.78634459998509    6.17429655453309    6.42045653944040
C         1.33863745423525    5.21108087810574    7.47751676307001
C         1.93625439856460    6.92315137605663    5.74018038744657
H         0.22934432298979    1.57737385896309    5.48997190891446
H        -1.39542054111866    2.32476802741269    5.46690385343942
H         1.41295092515190    1.11255228054532    3.36281462913478
H         1.28352506601478    0.81893657860657    0.92158683858482
H        -0.75252069495175    1.48009206931874   -0.30504066269639
H        -2.67486736962711    2.42076342145836    0.91969642036863
H        -2.57437491335097    2.70503316507407    3.35767926881845
H         0.42415228434597    4.02882093161235    1.64996967834064
H        -0.47768295111440    5.46529938046341    2.17821000639441
H         0.67303746995472    7.58052568830697    2.45279724846204
H         2.71754153845033    8.90222944296040    2.17667984425095
H         4.86082533055663    7.78760994347146    1.67050492438593
H         4.92963378841472    5.33142128542194    1.42126316052523
H         2.88222624596148    4.00221992184874    1.70518526728512
H        -1.71109006976465    5.00564171460095    4.47863379245681
H        -1.40101152056015    7.84774404044008    5.58367469362297
H        -1.08236419346110    7.35123307369263    3.91933940927264
H        -2.72147226766728    7.24114922102891    4.58119623417847
H        -1.93013337619008    6.06438588639313    7.34808955829470
H        -3.24068806533361    5.43711437123465    6.34736139943077
H        -1.94079877275686    4.35929615792935    6.88552594302508
H         0.13855384774194    6.90803902830895    6.92173387298976
H         0.52736513885062    4.68056442108251    7.97022774200639
H         1.98859891687792    4.48575468830196    6.99569072508420
H         1.90636782707845    5.75813737928945    8.22549571051134
H         2.57051202447348    6.21380020982085    5.21440676553680
H         1.55086195383540    7.63723538934137    5.01733160930971
H         2.52928519693104    7.45550590917881    6.47891495386224

