99
CSD_code = MAVJIC | q = 0 | S = 0 | Stoichiometry = C46H50O2Zr | MND = 12
Zr        0.61724702717385   -0.28250277465158   12.82137794205541
O         1.13840425684796    1.40296732709398   13.53506968231766
O        -0.87113488987198   -0.15323680863433   11.68278959904517
C         0.20166992810139    2.21401072095252   14.16888149768453
C         0.88071372838615    3.50745614310761   14.63208452294866
C         0.54653259536981    4.16809908419671   15.80660316620606
C         1.18335054300600    5.34821576390354   16.15250024965743
C         2.15929169500400    5.88621066723010   15.33286050396410
C         2.49390023940318    5.23736391429602   14.15650705481019
C         1.85471471813703    4.06243928345726   13.81017697696595
C        -0.86306909862436    2.70531737941277   13.18085662629240
C        -0.59559298616505    2.62759784131047   11.81685188354260
C        -1.45743434331010    3.19689088463365   10.89493837405814
C        -2.60856742171386    3.83636589614184   11.31946436087021
C        -2.88471229464776    3.91508324304314   12.67333517003755
C        -2.01178886118814    3.36969507455416   13.59825289179807
C        -2.22605544446693   -0.43134892867229   11.61027313681685
C        -2.48484476800172   -1.91134270331136   11.34437534357633
C        -1.50612918670206   -2.83760980081582   11.67767471266668
C        -1.72019217846707   -4.18949129501387   11.46884899854440
C        -2.91678535087231   -4.62904479885674   10.92932686321832
C        -3.89886839909899   -3.70981303775279   10.60126058747395
C        -3.68570400001982   -2.35822773774372   10.80592223789713
C        -2.91900882227009    0.40055584596655   10.54645357918089
C        -2.36284746487495    0.50864196409045    9.27992225349596
C        -3.00031769148530    1.23822287558244    8.29287966528673
C        -4.20706956548331    1.86188766326912    8.56067107591137
C        -4.76772701469519    1.75815849546151    9.82216807602332
C        -4.12530142286809    1.03431962919670   10.81113765797041
C        -0.73610149815629    0.00409603191469   14.97266314582513
C         0.24630768317856   -1.06967227007412   14.94859498583902
C        -0.50829543170042   -2.28459565321677   14.80792290572176
C        -1.86301441886750   -1.96249241814113   14.71746644073624
C        -2.00638845169137   -0.55821669861922   14.82629929492126
C        -0.41518966839354    1.42211664104417   15.35911920733566
C         1.55387356221690   -0.94938415367455   15.71842374392644
C         0.05145881511109   -3.67570078704534   14.90851140200301
C        -3.00373247307643   -2.92719906593869   14.60403187263351
C        -3.31378457061801    0.17551873967180   14.93072595207326
C         1.72345830242886   -1.14024748351887   10.74672330637760
C         2.02086118651607   -2.13307551664675   11.71979137964565
C         2.88670533226399   -1.55405164215054   12.69452336769125
C         3.11895910994991   -0.20568513467262   12.32436069907016
C         2.38345883224742    0.06064778109262   11.13408282536967
C         1.02016489207976   -1.39250561413787    9.44004207656127
C         1.81887943342169   -3.61514286477423   11.53592818439714
C         3.73700495630343   -2.36599971333158   13.63752923151030
C         4.07728074007361    0.75653956256081   12.97314445491639
C         2.51252661033837    1.31478831095735   10.30878217815474
H        -2.70033748133309   -0.19536375409694   12.58076605234375
H        -0.20974870702675    3.77156568134677   16.46577789306479
H         0.91388586693165    5.84966274435294   17.07098870001648
H         2.65397969794454    6.80625539135948   15.60750878756381
H         3.25183462911841    5.65012050828374   13.50633901384170
H         2.10780280323606    3.55233565687026   12.89208311737554
H         0.32119502418251    2.14623507807208   11.49026227617865
H        -1.22791844885031    3.14761914220776    9.84066973636997
H        -3.28058013438394    4.27993646331107   10.60044833164930
H        -3.77564676346466    4.42247340184061   13.01446932490299
H        -2.22219425515369    3.49292745379029   14.65059243633710
H        -0.57735630955789   -2.47017978876373   12.12157620316090
H        -0.95550786721374   -4.90734289215994   11.72872397971848
H        -3.08476740602014   -5.68368397893723   10.76838083459173
H        -4.83631338485128   -4.04689180817325   10.18361857909550
H        -4.45668150924795   -1.64729960720551   10.54713393431091
H        -1.42199830617572    0.01867540682309    9.08196321990257
H        -2.55840778348617    1.31702161539899    7.30964310761389
H        -4.70863724137905    2.42786094083045    7.78904394910385
H        -5.70827629837965    2.24464314882433   10.03737429388426
H        -4.56346600982357    0.96082220750950   11.79653917541295
H        -1.31805342965316    1.91077292063722   15.72376282779067
H         0.32540088743072    1.41916689671470   16.16767397119192
H         1.33072746223321   -0.73045877126092   16.76945233117397
H         2.19133420074032   -0.14464269191464   15.33580984481248
H         2.10544957802880   -1.88699768770000   15.70329656656711
H        -0.12110886594235   -4.08003195870875   15.90890038432414
H         1.12563208514012   -3.68566893865649   14.72828695708190
H        -0.42760212960964   -4.34954003209205   14.19821304644677
H        -3.56728067233900   -2.95883504958122   15.53836109867714
H        -2.64639521701321   -3.93151841667421   14.39213696318467
H        -3.69139112754762   -2.63976155039239   13.80771971620329
H        -3.56031681434475    0.35452936543228   15.98067730523986
H        -4.12332201314165   -0.41214145936894   14.50158183322288
H        -3.27409404957791    1.14047429194739   14.42507806554733
H         1.63225065793295   -2.03634330094278    8.80223610864612
H         0.85669275475577   -0.45829978503184    8.90563068518663
H         0.05601275564387   -1.88482742819559    9.58526450540335
H         2.76949246844975   -4.08203016804964   11.26254799458296
H         1.11021213403381   -3.81400518184971   10.73516022225854
H         1.46620254237317   -4.10466620287753   12.44375550703599
H         4.60232870678318   -2.75909929062730   13.09531432905298
H         3.19524731696357   -3.22248688806394   14.03664083775760
H         4.11324706865339   -1.77216068663117   14.46789944870701
H         4.75622172273027    1.17112739905813   12.22629439069821
H         4.67839668277224    0.25458741023545   13.72860139361586
H         3.54617553141895    1.58455127577402   13.44844302706267
H         3.37451126991780    1.23576276714073    9.63874008550058
H         2.67064014772602    2.18549238784983   10.94575642734214
H         1.62922176013695    1.48443789960324    9.69112983422845

