50
CSD_code = MAVTOU | q = 0 | S = 0 | Stoichiometry = C25H21ClN2Pt | MND = 4
C         6.72591627594243    2.39230147439171   11.95630358640507
C         6.85136357327425    1.43669180588701   10.95253574513761
H         6.18457468891506    1.47155475615081   10.10546599826798
C         7.82210564417458    0.45656988798579   11.04680637021639
H         7.92579508316445   -0.28810995543744   10.27206156003193
C         8.65923685615679    0.44872980555543   12.15376796704168
H         9.42926145308397   -0.29694337616729   12.26659626284614
C         8.49110790170770    1.42215956833337   13.12270581129031
H         9.12273833369287    1.45257992994441   14.00254769577593
C         5.86834597532147    4.27253110431557   13.10013683789672
C         5.05126046386621    5.37591793905748   13.34682585742475
C         4.07084281566902    5.68903780334634   12.40945946704606
H         3.41094905213686    6.53588244224232   12.53744270575922
C         3.93470798232980    4.89949655450536   11.26787234108276
C         4.75761413418693    3.79746786402764   11.03720398847332
H         4.60536789783732    3.21376128906200   10.13994902508198
C         5.74442869428801    3.47321665905866   11.96370390671839
C         6.81852938592783    5.97006051968156   16.44854107535599
H         7.64231927442806    5.46889400621717   16.94277667843189
C         6.21874657344607    7.08435298642420   17.00809975115650
H         6.56966508168909    7.46874620072114   17.95188135614184
C         5.16694811356584    7.68665927913615   16.33198824324034
H         4.67644054580001    8.55750731165246   16.74009661121971
C         4.75712211680380    7.15160734041013   15.12457626624760
H         3.94316172151263    7.59602557031331   14.57381127203264
C         5.39571847145190    6.02880664664567   14.60685864647642
C         2.89103198714978    5.24400203324605   10.27107989452448
C         1.56498917243426    4.87649146777004   10.49538107741985
C         0.60143057207613    5.21338552513568    9.55564154826316
H        -0.42697186422031    4.92874395352595    9.73000759755600
C         0.93058513292783    5.90529953897214    8.40055678165382
C         2.25745734344137    6.25731508214372    8.19166295359402
H         2.52599713389176    6.79475151924331    7.29265143477443
C         3.24296182303140    5.93588800247855    9.11082265258965
C         1.18895021333783    4.12465244484238   11.73764532356643
H         1.87367251342256    3.29583064934398   11.90834688718074
H         0.17630851979182    3.73672011074008   11.66123669489618
H         1.24174044958077    4.77710523321123   12.60868061817917
C         4.67159601136852    6.32375125798782    8.86837828513598
H         5.27717682696257    5.44066182145405    8.66571964368887
H         5.09175416245523    6.81317977768444    9.74567450651622
H         4.74893925099231    6.99589519016928    8.01749743359864
C        -0.11690376590836    6.28335199642414    7.39705177681848
H        -0.27720244982852    7.36149433287981    7.41038639973365
H        -1.06219305846138    5.79352816741358    7.61653703716740
H         0.19693847045144    6.00687271538151    6.39200915703682
N         7.56032865762552    2.36776653708565   13.03997583605726
N         6.43057245138341    5.44923337402902   15.28858670410622
Cl        8.86677540520233    3.30257612534796   15.93311208928402
Pt        7.22679693051967    3.83359773002766   14.38374263986025

