42
CSD_code = MAVWIR | q = 0 | S = 0 | Stoichiometry = C17H20Br2N2Ni | MND = 4
Br        7.65884375351643   10.04278609136307    0.64216822319916
Br       11.80218424510978    9.55394918462311   -0.45546515423991
C        10.11329966260942    7.64242456807152    3.04646846289612
C        11.23985248631921    7.24084156471800    3.75743618579063
H        12.08007005754131    6.80523758747890    3.23277130991888
C        11.30293509603787    7.41826411669444    5.12758845721479
H        12.18473816859753    7.10550912051177    5.66702153241122
C        10.24153880053307    7.99636108680857    5.80223526464077
H        10.29007946826785    8.13417283449778    6.87182292958017
C         9.12723750483416    8.41597189828322    5.09534684991056
H         8.30625624757605    8.89108017315463    5.61088730888461
C         9.06037048882621    8.24696894022783    3.72445662109797
H         8.20558366696974    8.61379293506022    3.17992373940255
C         9.31831977349132    6.36737326565175    1.05867181961729
C         7.90251408994357    6.30173366544518    1.64560204739160
H         7.37294670545862    7.23339555861055    1.46335523048218
H         7.95244960566193    6.12561620439010    2.71632820433144
H         7.34426220186987    5.49042809195032    1.18686908550377
C        10.06435668791987    5.05437020764679    1.32898595381526
H         9.49194332895966    4.19054786728000    1.00573047523042
H        10.23555458901030    4.96359209588686    2.39991451053577
H        11.02795013699322    5.04615930387501    0.82210190695921
C         9.15457678512506    6.62417582171334   -0.43340132292592
C         8.85113457803510    5.46808928079662   -1.32720030054851
H         8.41257581274095    5.80640201487647   -2.26305366916695
H         8.17144503666228    4.77420170992477   -0.84073387637567
H         9.77384533971269    4.93413453149347   -1.55384721730951
C         9.05667542868423    8.14416338896808   -2.24589764676084
C         7.83841706219807    8.65901732296869   -2.68631854014975
H         7.03128758893566    8.80430042591221   -1.98389692025759
C         7.68102370336216    8.99022448512088   -4.01927772935565
H         6.73915035604011    9.39558620478967   -4.35508740488879
C         8.72352243973987    8.81165303084083   -4.91389207113277
H         8.59843832884675    9.08503828143369   -5.95032086522147
C         9.93003819908586    8.28964826995833   -4.47553938939604
H        10.74602002905299    8.15076781806746   -5.16776585938042
C        10.10161624380953    7.94803169463895   -3.14795487274688
H        11.04575601112967    7.56077027298841   -2.79564391334594
N        10.08600214039981    7.50072785630565    1.62409271841452
N         9.23297635624811    7.81927296231317   -0.87769705451493
H        11.05801085791968    7.36390604912074    1.32717032586218
Ni        9.65520093622383    9.27511221553686    0.07944464462641

