78
CSD_code = MAVWUD | q = 0 | S = 0 | Stoichiometry = C29H44Br2N2Ni | MND = 4
Br        4.74137451525956    4.19891810620048   13.96222209056606
Br        2.13196098873125    2.92368944676501   15.48309268321419
C         1.10348395869282    2.24144969626801   11.67197577308326
C         1.59716622814577    0.97998706045721   11.29051017683652
C         0.69654205925879   -0.04877625735338   11.05799853960508
H         1.05782360912643   -1.02447341803185   10.77841014531967
C        -0.66494786540057    0.15157773203829   11.17237644788904
H        -1.35139215866033   -0.65576666632823   10.96568159025631
C        -1.13881799104764    1.37792564297491   11.58592727227014
H        -2.20062862394456    1.51661287773272   11.71727187743386
C        -0.27257715880965    2.42846311943752   11.85866509691014
C         3.08475997890068    0.69888238988507   11.20997093125878
H         3.61829475255513    1.59650743428535   10.88090322931697
C         3.44882447804825   -0.39337405926589   10.20221060402976
H         3.16357423911129   -1.37847405950313   10.56131323319593
H         4.52632997078109   -0.39791165083564   10.05082620691720
H         2.96673909078214   -0.21540031844751    9.24245969816430
C         3.59409690108006    0.31809700436240   12.60556871069578
H         3.37212564271148    1.09074611298670   13.33782464831448
H         4.67066824949871    0.16698253341728   12.58647299128824
H         3.11672901327825   -0.60020580097285   12.93900517816711
C        -0.85290757062326    3.68680951127944   12.46554057936219
H        -0.06667264098288    4.44552179580644   12.53242436251969
C        -2.01620105010721    4.27545241327048   11.66230379144807
H        -1.76953712101661    4.39499795395951   10.60856399620708
H        -2.28771178489263    5.25061400789280   12.06371208398022
H        -2.89189269023473    3.63518829447769   11.72618180209372
C        -1.33421250085410    3.35618073000262   13.88282907590741
H        -2.10839536687228    2.59375239992903   13.85266066782039
H        -1.74674132234224    4.24121003970757   14.36188872958352
H        -0.51670835493482    2.97491487946631   14.48826643662952
C         2.17007591589838    4.37574590218034   10.88261557489919
C         1.20941808141847    4.18163351277795    9.71021591481408
H         0.17477971469338    4.30481864253639   10.00797989560817
H         1.32630712298909    3.17516755847055    9.31401550381953
H         1.43547521596229    4.88669756425937    8.91510336887561
C         3.60634819883800    4.33993647851990   10.31650549719853
H         3.78095776003744    5.19055619172696    9.66072555969625
H         3.74479696515714    3.43578358637692    9.72779845200244
H         4.34472306273908    4.36005765344668   11.11687898560435
C         2.03702425690801    5.74370838484260   11.54785449715277
C         1.49792810088173    6.88424175181346   10.74843325362778
H         0.46971725794312    6.66921395451874   10.45968838351403
H         2.07691665640344    7.02374390588153    9.83773159675776
H         1.51737003246879    7.80493687485424   11.32826562539051
C         2.59897851644532    7.11059542879569   13.41032419026543
C         3.62994689972327    7.98719248869913   13.02605817910603
C         3.77255873823897    9.17746050742813   13.72446623134129
H         4.56213434681096    9.85727962830836   13.44601922299452
C         2.92925645569430    9.51136858826797   14.76538142718634
H         3.05499017035496   10.44787843371121   15.28707160301962
C         1.93505154853598    8.63318266530506   15.14829362938339
H         1.28666743967746    8.88872670641897   15.97148971561190
C         1.76651188335670    7.42059270575697   14.49728147910144
C         4.61366339924343    7.66698778360151   11.92561304286828
H         4.33881658856161    6.72078138556583   11.45692556570016
C         4.61811683190423    8.75321881963441   10.84555466464294
H         5.02545871207439    9.68349245825232   11.23206254629348
H         3.61398528834023    8.95198705860230   10.47608053663141
H         5.23823743102123    8.43728008031390   10.00953609695595
C         6.01917205985513    7.49461008075156   12.50862745496948
H         6.35619562733590    8.40795408594218   12.99137568016734
H         6.71833393857848    7.24501755278578   11.71434457699097
H         6.03127375083150    6.68923568779753   13.23765746865146
C         0.67211976938293    6.48199797614205   14.95566990505972
H         0.78719106693044    5.49834816861373   14.45212733282838
C        -0.69080065333202    7.04888558305249   14.55652384335960
H        -0.82999751816603    8.03606509290556   14.99247160944700
H        -1.49127158939380    6.40436376977464   14.91280194501089
H        -0.77237819556317    7.14086833487914   13.47380090631336
C         0.74292079387764    6.21820110943334   16.46099763344021
H         1.74788915443759    5.90847896509597   16.74610663758092
H         0.05332426997147    5.42057564512550   16.73057098614106
H         0.48003361001121    7.10444434724674   17.03307983637886
N         2.02619646756002    3.31185254430995   11.91787510764053
N         2.44071899533849    5.87142096318628   12.75225224606607
Ni        2.49989829806382    4.42253515993024   13.94937676944583
H         2.94501808674636    2.87937928030996   12.03861117020029

