37
CSD_code = MAVXUC | q = 0 | S = 0 | Stoichiometry = C11H21AuClPSi2 | MND = 2
Au        3.33855025790141    4.87265959943423    5.33402725050335
Cl        3.24747945081577    7.11117360270792    5.68057070186969
P         3.42089098387752    2.64458289404892    4.98373043278541
Si        3.36757453196942    1.96428165328475    8.02542917041587
Si        3.48014141558634    2.94810831172455    1.88108297136539
C         3.42256998545558    1.41137933188611    6.19344458430782
C         3.46605600415272    0.07926081061406    5.81269773002998
C         3.50847515829173   -0.37024960328127    4.50208483459711
C         3.51168960227754    0.46660390752193    3.39703550155046
C         3.47440820308015    1.85129353193364    3.45027738078113
C         1.78500397115030    2.99737539835194    8.25492240548439
C         4.92768410481403    3.00992892663080    8.33884152043146
C         3.34008066039930    0.42780342457250    9.15023451878595
C         5.01689939722346    4.06741668395276    1.98378906469847
C         1.87690203294727    3.97480764768159    1.90402261026762
C         3.55106428733969    1.83674547221772    0.33621968038192
H         3.46651632204529   -0.66573426422102    6.59716727161172
H         3.54052687841304   -1.43780116662804    4.33148441606484
H         3.54543541389715    0.00406350594672    2.41966104161149
H         1.66175170401914    3.30204515912770    9.28923680078009
H         1.82203320924756    3.90054647274365    7.65009299663479
H         0.89597992277047    2.44363025712288    7.96598660407780
H         4.96362143232779    3.36342784305479    9.36429605812679
H         5.83695816616688    2.44520680508334    8.15255932805929
H         4.94255262322558    3.88327351485637    7.69089028831165
H         3.30387096802892    0.72929196621722   10.19184225577266
H         2.47086941302845   -0.19492066853544    8.96254989184929
H         4.22677485960200   -0.18496250060780    9.02100411279450
H         5.10304190531279    4.69682896491796    1.10387206827076
H         4.95964054977419    4.72246548303697    2.85010155256188
H         5.93322047018922    3.48963184070271    2.06713928661900
H         1.79933881500717    4.59961837206902    1.02000951947095
H         0.99310663603776    3.34396171230436    1.94057862571063
H         1.85061900523484    4.63053131825346    2.77126213620355
H         3.55742862187348    2.44607016834231   -0.56144064779231
H         4.44742877950339    1.22459626197750    0.31886849452127
H         2.69171425701377    1.17635736093962    0.27352754049185

