129
CSD_code = MAVXIR | q = 1 | S = 0 | Stoichiometry = C56H62AgN6O4(1+) | MND = 4
Ag        3.11930871051560   18.46770645660345    5.53343944780609
N         5.03906721932675   17.24447924871882    5.76103954352357
N         5.84656163309622   17.50750317152070    4.71521367234346
N         4.80305457641864   19.51852253944460    4.26405292429833
N         1.52636190675988   16.82585082028170    5.55776147642016
N         0.66108919497231   17.07753568472554    6.55913736389370
N         1.21946328374407   19.31782304505487    6.63744584431798
O         9.62262933873779   15.88505647462093   -0.31008564387317
O         2.24487609263011   13.42833301748514   10.09459296575510
O        -2.75687126705802   15.54889314064403   11.86111897566537
O         5.18459609905010   13.04747196944832    1.88561685761309
C         6.53550118595838   16.38945098615065    4.33313617511936
C         6.14285098692275   15.38491785330045    5.19086200551097
H         6.47336790469079   14.36820601576430    5.16534618293554
C         5.20101683223623   15.96108807152847    6.06858584897970
C         5.93822529784978   18.81468566253989    4.25077546643819
C         7.15709995308954   19.35768907997231    3.84348730500689
H         8.05486733571362   18.76298279876789    3.88182817493603
C         7.17954005294180   20.66729007691570    3.40655487740768
H         8.10554617800840   21.11787234067533    3.08546754520375
C         5.99584642937523   21.39576240629514    3.40154406251864
H         5.97327472964496   22.41898148407601    3.06494413048062
C         4.84163339323815   20.78164659706925    3.84853523444145
H         3.89973997288813   21.31231067378133    3.86698782757765
C         7.37775209843907   16.29280927588452    3.15316384344758
C         7.06644500864729   16.98074206841146    1.97565381024752
H         6.19535225875572   17.61878453209277    1.93712547243016
C         7.83840269782824   16.82618456055410    0.84877465640411
H         7.59846593253916   17.34564520410698   -0.06527457510452
C         8.94893440339718   15.97243789422397    0.85218727901212
C         9.25914688810264   15.27951887230607    2.02153358193300
H        10.10746021665627   14.61574066681490    2.06121020389697
C         8.47784879656423   15.43896523764819    3.14962958674571
H         8.73222508921870   14.90177305175148    4.05032246062430
C         4.46156545336871   15.33335358638363    7.14816896547482
C         4.44944298161648   13.94377963626586    7.29447389068488
H         5.01843670200097   13.32755866950478    6.61748582098974
C         3.70190212401459   13.34864328398819    8.28185491434157
H         3.67997715534531   12.27625790029531    8.39406058815373
C         2.95135880002679   14.11909963195726    9.17691367793583
C         2.98225848594091   15.50827393890991    9.05524291110892
H         2.43344360274683   16.13023252947479    9.74443391936084
C         3.72071829061684   16.09803202698107    8.04820918522110
H         3.73899610880753   17.18073909123533    7.96325289587791
C         0.23284489097702   15.91661574340003    7.14181066432065
C         0.85616839457074   14.89307728186683    6.46154335003934
H         0.76119116943458   13.84815397496453    6.66822502656060
C         1.66144746852838   15.50544959981631    5.47867530316780
C         0.27060856612704   18.39090866975631    6.79441834804302
C        -1.04618439235911   18.70910863000791    7.12793127810099
H        -1.78731547280107   17.93121439723724    7.20993273765955
C        -1.36902855012756   20.03539704302938    7.33569428018251
H        -2.37804467514164   20.31558046825517    7.59451778858156
C        -0.37863433407948   20.99990351006805    7.19188683047519
H        -0.59166926215410   22.04430441688837    7.34881302658025
C         0.89157568796089   20.59230231342820    6.83192589623266
H         1.69089477267961   21.30899047198280    6.70328438961139
C        -0.58885487027437   15.83950371993782    8.33761234952503
C        -0.46096357784012   16.77184840648054    9.37256003599450
H         0.24618734105510   17.58388850414343    9.28359028248681
C        -1.20173231428346   16.64700711677224   10.52378708730578
H        -1.10108290733614   17.35652846840387   11.32960085154983
C        -2.09542355561689   15.58108607058863   10.68897234529193
C        -2.22057583862961   14.64508860983746    9.66329925246358
H        -2.89951504298008   13.81300120403624    9.75521738226622
C        -1.47176815081023   14.77650510438805    8.50983795809090
H        -1.58257070409986   14.04892670965761    7.72061416174969
C         2.54271411007666   14.88327548267434    4.50778584856811
C         3.11119037944365   15.62893593976480    3.47604008443893
H         2.84997842641764   16.67844183704176    3.37536304427078
C         3.98177380927695   15.05601407655808    2.56996969138457
H         4.39079139543450   15.65799385242839    1.77416230228241
C         4.32440417024533   13.70891153998332    2.68628596671267
C         3.74781033885738   12.95463752881344    3.71422314641087
H         4.01060898388024   11.91115117688723    3.78607804706454
C         2.86753975552743   13.52740472725497    4.60029591871443
H         2.43756535182287   12.92442566699622    5.38346449847701
C        10.71234073467141   14.98426911188332   -0.42385546071771
H        10.39133125601993   13.97119523872895   -0.14868701981507
H        11.52623066848911   15.29099433834973    0.24648158590221
C        11.18014301590466   15.00730725396324   -1.87390520202212
H        10.33141955242092   14.76383499090579   -2.51505386251422
H        11.50632461957015   16.01826864231128   -2.12268136090002
C        12.31568812590831   14.01776184552023   -2.11891711069278
H        11.97898730067591   13.01003765324533   -1.86537986428178
H        13.15667436092762   14.26130271014874   -1.46602444386895
C        12.77536534742231   14.04729964085523   -3.57091255976116
H        13.58278432634488   13.33726214422887   -3.72880160865457
H        13.13302779300719   15.03868592236918   -3.83825141591050
H        11.95532154438414   13.78801336716332   -4.23632370914633
C        -3.62247206330170   14.46263149198698   12.14855252896468
H        -3.07950562903992   13.51397009536494   12.04699543022504
H        -4.46971535739244   14.46110336378201   11.44996671034897
C        -4.11426847597598   14.63064699268371   13.58097766299443
H        -3.24640382525284   14.69781873523509   14.23902328852727
H        -4.66357566660621   15.57020378193706   13.65716684482442
C        -5.00450092285941   13.46918234665266   14.01367122734792
H        -5.86586920566525   13.40350920615820   13.34541092696817
H        -4.44619626169573   12.53412640169686   13.92919206845830
C        -5.48705352026994   13.64245493493995   15.44808137201897
H        -6.11836917672569   12.80759081082698   15.74040209602024
H        -6.06217626527557   14.55960513215506   15.54954940920918
H        -4.64278582250437   13.69011909741105   16.13175877617719
C         1.55007973226223   14.12006635516222   11.11740137771929
H         0.81580400991383   14.80935534877257   10.68237822137543
H         2.26028979488283   14.69782389573477   11.72448021290007
C         0.84293314464299   13.08026511250474   11.97915386784569
H         0.11714517539961   12.55098517784401   11.35879709284173
H         1.58027011970045   12.35265314802562   12.32187689105591
C         0.14366641865658   13.71379842461909   13.17875558934784
H         0.88331113614459   14.22513837124601   13.79834604530414
H        -0.56852237098020   14.46455542646448   12.83146735281353
C        -0.57933390536419   12.66703644253207   14.01759021227587
H        -1.07770173340501   13.13263125170610   14.86391675615724
H         0.12476996192794   11.93117390065561   14.39816096567536
H        -1.32588690792356   12.14540104001447   13.42268052888710
C         5.72631167934619   13.69336067866721    0.74684789520373
H         6.27860444993447   14.59338046100269    1.04420836124455
H         4.91635862066467   13.98542076688972    0.06460112510030
C         6.66519465250680   12.70846806520059    0.05960792208967
H         7.48273088940246   12.47278358612038    0.74357943721389
H         6.11831254710481   11.78464595906316   -0.13537937305687
C         7.22018459662614   13.26797894464491   -1.24746703071570
H         7.73720336318711   14.20912013577010   -1.05129681817789
H         6.39300117649685   13.48342008711247   -1.92703161807782
C         8.17545858626129   12.28454711772483   -1.91255375353057
H         8.56643958324106   12.69813625068796   -2.83857048710502
H         7.66386422257384   11.35338267546203   -2.14339475612306
H         9.01275310439185   12.05736258828996   -1.25632285577743

