101
CSD_code = MAVYEO | q = 0 | S = 0 | Stoichiometry = C34H56N10Zr | MND = 6
Zr       -1.42921208454286    0.55431081502835    4.11292834056866
N        -0.46748053466689    2.26306836863791    3.25979082974659
N         1.73458314733085    3.04087434048288    2.59796605703072
N         1.38323166938635    0.89734905053832    2.95240899071588
N         0.73557222628355   -0.22128379023490    3.34530311830700
N        -2.24003210474887   -0.38447101560987    2.40520378951461
C         0.77777159470881   -2.54949773643269    3.88457221344132
H        -0.13362579420310   -2.25260232950031    4.41639943377290
H         1.44359641688086   -3.08492939931993    4.55921849175784
H         0.52873957557521   -3.21702410489651    3.05930893270156
C         1.45068738917379   -1.31071307127286    3.38193401614195
C         2.80953479152917   -1.32702303144014    2.97703822934208
H         3.33701431285034   -2.26785567259118    2.99658616052369
C         3.47157695832821   -0.18521268333023    2.57106844598647
C         4.91118625698560   -0.31540376406732    2.18823586985904
H         5.17117161833649    0.33972938791206    1.36360340391479
H         5.12600392532547   -1.34274031812147    1.90109296242554
H         5.54394430856731   -0.06884074955567    3.04095625440879
C         2.75817995002533    1.02902607987281    2.57685570370189
C         2.90398206511924    2.40477227110688    2.36736264602948
C         4.06851708749016    3.25932017814286    1.92666460122813
C         4.40587313445187    2.96333182939665    0.45904098969459
H         5.25894775982503    3.56104655117177    0.14410866737152
H         3.55517595670246    3.21409399165229   -0.17027488109130
H         4.64219821986263    1.91501493293489    0.29958787686330
C         5.29368240650544    3.05160783877841    2.82408703898164
H         5.01413150194750    3.17247562107657    3.86826608484653
H         6.05230243936428    3.79417600956153    2.58414551287260
H         5.73095623020999    2.06946898386079    2.69498281509213
C         3.65923226438877    4.73349895980971    2.02879482293893
H         3.43184674982756    4.99011954624110    3.05906554204937
H         2.77090268733840    4.92052196240225    1.43468847544030
H         4.46877839709693    5.36821912090187    1.67424952947996
C         0.81791563018689    2.13595001403599    2.94853188114284
C        -0.99430959696578    3.60042028733165    3.46954614123259
H        -1.61382305510914    3.89383404316134    2.60781761700383
H        -0.17476615078803    4.32657039150268    3.55583780312446
C        -0.76534709503513    0.04806320500220    0.39671009293698
H         0.00626032559405   -0.44018938135725   -0.19701121677658
H        -0.31474588433254    0.85653810924679    0.97323321924190
H        -1.49817191505089    0.47452300108486   -0.28540141402309
C        -1.43402996359891   -0.96707610272951    1.35189777755134
H        -2.05309015735698   -1.64707493157511    0.73047677088966
H        -0.65096790771910   -1.58155546376398    1.80874003138970
C        -3.47405521165929    1.71579251460409    1.73786240130718
H        -4.39952000177577    2.04909769796727    1.26637225002524
H        -2.63303903854690    2.05040082238969    1.13195108719141
H        -3.40212533674620    2.16949733176170    2.72824329913261
C        -3.46811196808622    0.17875091958293    1.86352324941023
H        -4.33121606378361   -0.10645714733982    2.49227779201903
H        -3.66665288351134   -0.24431870031491    0.86360820606981
N        -2.39122574590518    2.26321982098092    4.96534626088632
N        -4.59291939181954    3.04093092693639    5.62849029740971
N        -4.24173980392900    0.89745413968257    5.27360472706790
N        -3.59428755362249   -0.22112002233731    4.88020439020485
N        -0.61838995229944   -0.38411720466389    5.82072897196129
C        -3.63656240765932   -2.54945448974645    4.34144893217680
H        -2.72543634193720   -2.25257860379180    3.80914414007452
H        -4.30268747710034   -3.08500788821801    3.66720347403138
H        -3.38708807776887   -3.21686287413776    5.16668529951741
C        -4.30935559914026   -1.31060122275366    4.84408307488753
C        -5.66792658728435   -1.32700078978604    5.24991471637423
H        -6.19534806992082   -2.26787648991745    5.23076888614681
C        -6.32977583703011   -0.18523018555030    5.65630710646442
C        -7.76921068611995   -0.31545887372972    6.03978977675595
H        -8.02883421631354    0.33973199543122    6.86448195265495
H        -7.98382559568840   -1.34277686321723    6.32713743756909
H        -8.40241064359384   -0.06901449306592    5.18735991463333
C        -5.61643512555661    1.02903988152382    5.65010532559955
C        -5.76217149849894    2.40477885448348    5.85969163218911
C        -6.92656467352089    3.25929313027483    6.30082486400464
C        -7.26338561199010    2.96331972697923    7.76857244847946
H        -8.11652938203423    3.56082958745243    8.08370836043754
H        -6.41257019185644    3.21436489422209    8.39761435049946
H        -7.49937284733156    1.91495264690303    7.92819172409247
C        -8.15204678409955    3.05154211761477    5.40383841523972
H        -7.87283071159952    3.17226348377513    4.35954898366461
H        -8.91057865783011    3.79416091286690    5.64392739146758
H        -8.58929600912613    2.06942652994249    5.53320926817643
C        -6.51737909924690    4.73348740360570    6.19852976040263
H        -6.29039595580367    4.99011779221137    5.16817241617719
H        -5.62881839853575    4.92051465696329    6.79228618775551
H        -7.32679459564465    5.36819248812045    6.55340471726358
C        -3.67643124495759    2.13606002031632    5.27733592334970
C        -1.86446621672080    3.60056839928581    4.75551095857582
H        -1.24494886006772    3.89408768423268    5.61720475429072
H        -2.68403995220660    4.32668999472388    4.66915206086079
C        -2.09304585093437    0.04820449347320    7.82922864973097
H        -2.86450730791281   -0.44016974158273    8.42303644453638
H        -2.54384059957821    0.85660636046419    7.25276928103378
H        -1.36021541463883    0.47480710099126    8.51124418724632
C        -1.42435972846493   -0.96686152935495    6.87396264639457
H        -0.80517945239093   -1.64678981109999    7.49532470637211
H        -2.20735030687439   -1.58143102325028    6.41711095791035
C         0.61538797563907    1.71645511270879    6.48782518658698
H         1.54077111504114    2.04994557532437    6.95934658017109
H        -0.22573400457598    2.05100131830513    7.09360723815497
H         0.54347153042803    2.17003776653037    5.49740175402564
C         0.60957905884455    0.17941086316232    6.36234281965709
H         1.47278358052535   -0.10574019598637    5.73371005703462
H         0.80814495965280   -0.24349816099799    7.36230263531541

