49
CSD_code = MAWCIW | q = 0 | S = 0 | Stoichiometry = C22H21Br2O2PW | MND = 9
W         1.44969759877942   10.98661039728841    2.45322253715353
P         3.12219107391875   12.94759400997596    2.37193750786507
Br       -0.00839907061625   13.21445751656130    2.94668649262949
Br        4.01081491714350   10.06636318778253    2.45537342897497
O         1.53953960429216   10.53826758437874    5.55408643054288
O         1.21007477706445   11.14097124053060   -0.66547686865265
C         1.55801478126910   10.78130149250565    4.43353828124219
C         1.34820872371608   11.16088984251983    0.47803708558250
C        -0.19603337531417    8.73242734514453    3.39688333898965
H        -0.37794171703424    8.33798066344052    4.39514146114441
C        -0.56443454750471   10.19162231662695    3.16175042947141
H        -1.20479372814149   10.74149693252763    3.84512072622909
C        -0.62136054991817   10.35009988364025    1.75209515905633
H        -1.31123963695527   11.03378590257827    1.26424439747556
C        -0.28393430233443    8.97738291180408    1.17413777894328
H        -0.54719627301442    8.80810437691745    0.13130269962916
C        -0.88915348403627    8.03065612681694    2.21957336646256
H        -0.57432002472996    6.99450124890223    2.09306701347941
H        -1.97697129022334    8.08501907023064    2.26886987617028
C         1.20262741244365    8.93117605666959    1.52178341130082
H         1.94040885924906    8.49035521579000    0.85608712639552
C         1.25481786195744    8.77666123164885    2.93445183279359
H         2.03211901116852    8.20805265284933    3.43662505102676
C         2.57300807228635   14.64961453035044    1.96113436536891
C         1.85666393385857   14.81130483835039    0.77860369032175
H         1.57217225778596   13.93801478000225    0.20266490477399
C         1.48249687494918   16.07058372469067    0.35631167690564
H         0.91864365047026   16.18782417097009   -0.55679668327640
C         1.82495074741177   17.18107142740302    1.11216275930644
H         1.52674840469298   18.16658403013730    0.78783281966148
C         2.54337194865063   17.02514672606971    2.28369633586017
H         2.81041909744912   17.88850064636862    2.87483229162585
C         2.92293425168396   15.76308057932675    2.70977336485862
H         3.48474548128019   15.64943203131128    3.62572745324809
C         3.91408452497012   13.13044546339781    3.99922112130503
C         3.09601090357171   13.49346158194858    5.06981721059123
H         2.04936383802066   13.71345924305281    4.89985214926937
C         3.62337269346880   13.58706761956273    6.34338947505297
H         2.98623471978190   13.87079146132626    7.16764041700937
C         4.96391804038005   13.30803464499768    6.56047586480673
H         5.37317000793316   13.37188883744556    7.55761956087002
C         5.77559087198908   12.94081659044488    5.50083806844368
H         6.81773541503811   12.71482223544448    5.66954497452381
C         5.25703403951267   12.85023655682039    4.22046861096448
H         5.89338426396485   12.54233905714272    3.40519700261507
C         4.49889000500119   12.98254880241319    1.14589466018917
H         5.16536052538014   12.12784920826400    1.21521703857652
H         5.05565291964049   13.90882383977375    1.29830611092193
H         4.05280588965172   13.00368016585355    0.14983619230350

