71
CSD_code = MAWDAS | q = 0 | S = 0 | Stoichiometry = C30H38N2Zn | MND = 4
Zn       10.35021096669324    2.81325755842578    6.93551366757339
N        11.74113219675874    2.56662899363511    8.69608907316165
N        10.76960639682852    4.86506992786170    7.72957781751783
C        12.27881403659199    1.40074408527866    9.02651068202906
H        11.69480178305904    0.52787187413014    8.76589601476333
C        13.49672822941678    1.27329427398015    9.66385678342605
H        13.88817127249775    0.30029138539764    9.91361307803247
C        14.20682396307898    2.43361460303859    9.96123804021609
H        15.17387584935120    2.38030433184262   10.43853782911210
C        13.65313719758806    3.65261992510921    9.63207065487988
H        14.19417185455905    4.56324718713279    9.83416134885387
C        12.40206618100278    3.69385018057064    9.00645546999447
C        11.74815473520275    4.94668945491696    8.64300135144910
C        12.09202915230024    6.17303956227532    9.22436934350663
H        12.85930040681146    6.22482957927601    9.98018143548383
C        11.41978759105540    7.31522152171617    8.84445139681212
H        11.66749382521996    8.26963236259740    9.28477744092593
C        10.40956114148161    7.21514987884997    7.89146455984725
H         9.85742677288305    8.08333412760725    7.56979745189058
C        10.12626962903768    5.96632604219502    7.37352743699629
H         9.34398040652924    5.83127127863200    6.63880042736579
C        11.90133231647048    2.15963695318672    5.65477974191598
H        12.40614577089754    1.31966958174601    6.15071476727938
C        12.94346090880471    3.24893998721557    5.42009744238646
H        13.31688503284558    3.62356777739878    6.38399628638630
C        14.12715531694228    2.68221846747284    4.62446573332226
H        14.88519933249052    3.45724875474508    4.47717266473600
H        14.59030601950604    1.86378289149909    5.18192360664223
C        13.63035183379391    2.17476616765482    3.27240413989421
H        14.47394596400807    1.76253683411880    2.70421072436261
C        12.58200745007752    1.08765001593600    3.49292043630725
H        13.02469582947850    0.24818484664120    4.03492401926821
H        12.22571905084587    0.71270587457389    2.52939168468216
C        11.40840129095659    1.66469567301416    4.29640672984128
H        10.65962368475523    0.87607587586752    4.43810820149507
C        12.33580585157515    4.40837194076531    4.63385290397493
H        13.08424967397393    5.19211669653056    4.48346645327779
H        11.50453416127074    4.83991338370211    5.19745600359292
C        13.00680915827486    3.32878059061683    2.48938503247796
H        12.65958419839124    2.97274388686787    1.51620788789904
H        13.75390147397681    4.10729942516080    2.31380402857814
C        10.78596153565653    2.81456110966375    3.50899004308917
H        10.41345007100923    2.45336567246924    2.54676527534426
H         9.93896557288783    3.22346786418301    4.06898307666768
C        11.83384043751916    3.90227603390066    3.28390356554920
H        11.38710750276999    4.73328918229637    2.72389378873649
C         8.27155149006350    2.70255605287564    7.11468889037673
H         7.81666008650514    3.45955151648207    6.46092375992365
C         7.71918411380166    1.34205537303733    6.68361125417446
H         8.04054104791639    1.12101313153278    5.65823628903359
C         6.18621141604547    1.34406233140338    6.72493635466684
H         5.79875627815888    2.10628286286942    6.04432914635387
H         5.80214883524688    0.37497304173366    6.39379033781283
C         5.71667893716835    1.63157760736366    8.14817835579269
H         4.61963064334020    1.63882759993425    8.18045595626595
C         6.24394415576197    0.54718567191241    9.08620628554731
H         5.85753517243465   -0.42850028930074    8.78022572370907
H         5.90087072669227    0.73779320857171   10.10651138712756
C         7.77210440315658    0.54072823201605    9.04372644846121
H         8.15041915471869   -0.23747252337034    9.71900254056194
C         8.29510203927122    1.90400116402268    9.49080705810415
H         7.95746353344057    2.11275985412115   10.51020498765388
H         9.38757644927403    1.90514816683843    9.48989428370909
C         7.78401478741524    2.98160738842825    8.53793429474914
H         8.15232290228549    3.96021277300378    8.87121223051805
C         6.25059379509778    2.99306000486829    8.58602307648642
H         5.91065111697416    3.21834731651438    9.60117846115825
H         5.86378100074734    3.77250921095925    7.92449704046711
C         8.23912603318871    0.25312584329549    7.61847105381230
H         9.33394597464492    0.23585795946331    7.57944229010445
H         7.87330287952812   -0.72661712026370    7.29879695189211

