87
CSD_code = MAWFIZ | q = 0 | S = 0 | Stoichiometry = C36H42As2Br2O4Pd | MND = 4
Pd       -1.82316245693336   -5.00910490425931   -0.00000599128309
Br        0.57334841725715   -4.78914129368427    0.22712777490987
As       -1.47009297009099   -5.96186871983095   -2.10244791185448
O        -1.73156720234966   -9.74884367480385    1.40331099684623
O        -1.63137977387657  -10.39513869984340   -0.83259270117068
C        -0.16558131726333   -5.20421820586992   -3.32873915972872
C         0.14934047208577   -3.85407685821054   -3.23274991312951
C         1.05905893565038   -3.28842453486967   -4.10889652380956
C         1.65354651092158   -4.07043152560308   -5.08445883851233
C         1.33582639564646   -5.41540954982731   -5.19052317116580
C         0.42528123528126   -5.98188093151440   -4.31711781182345
C        -2.88180295380970   -6.43076838568971   -3.35360039602877
C        -3.49022396256416   -7.67886808963271   -3.38497570795423
C        -4.51941793979932   -7.92413143016686   -4.27835107387261
C        -4.95346202638595   -6.92732075591714   -5.13469573501566
C        -4.36049556137247   -5.67557679529984   -5.09832101344621
C        -3.33267092383962   -5.42766257534048   -4.20829335754083
C        -0.72766206803652   -7.69344392293457   -1.55294182347815
C        -1.45963101795731   -8.09938143076848   -0.27182166005256
C        -1.13811327907434   -9.52550480718120    0.15367430396962
C        -1.50922367414522  -11.06564841147416    1.86550469782350
C        -2.03109183707354  -12.08350958358992    0.85060060320967
C        -1.40075216979762  -11.74914756608442   -0.50165125823812
H        -0.31662033201977   -3.24752841623607   -2.45611259553552
H         1.30602449336273   -2.24026974427803   -4.02722014646634
H         2.36809510854647   -3.63233394998367   -5.76573778926062
H         1.80077345275488   -6.02227727097405   -5.95412918241201
H         0.16533878989235   -7.03356936868568   -4.39199178643948
H        -3.16520535881730   -8.46452732147533   -2.71244756183168
H        -4.98826319470497   -8.89726187772300   -4.30040368834339
H        -5.75977958635289   -7.12237954539292   -5.82625462100069
H        -4.70449734812235   -4.89318834492381   -5.75907001481641
H        -2.86326608195240   -4.44628952801689   -4.16248206100019
H        -0.86687621727174   -8.45665420005619   -2.32608051411916
H         0.34504445475061   -7.57445617681207   -1.35867582214338
H        -1.17620915957710   -7.43950384050067    0.57454302287386
H        -2.54982362383461   -8.05013891605718   -0.41470921974946
H        -0.03669556499052   -9.67355777353984    0.24306348956381
H        -0.43007633662460  -11.22021323900400    2.02868300158460
H        -2.03121254922654  -11.13945027232588    2.82075867707644
H        -1.77472710001505  -13.09721341850585    1.15479115752347
H        -3.11510114586642  -11.98924407954972    0.77355448065845
H        -1.84000490109396  -12.33469841187504   -1.31102244672664
H        -0.31528445849206  -11.93829025001493   -0.46482708427299
Br       -4.21957986352799   -5.22910786581838   -0.22686227753468
As       -2.17619350662776   -4.05627568294620    2.10247155709061
C        -3.48077024156881   -4.81373833234071    3.32884709601028
C        -3.79570587542469   -6.16389151065590    3.23302330215236
C        -4.70550141856842   -6.72940901582353    4.10918154223854
C        -5.30000702150778   -5.94727791410372    5.08463663357561
C        -4.98223489667792   -4.60230146772869    5.19056957438469
C        -4.07165850266736   -4.03594970164576    4.31711738473205
H        -3.81161544599195   -2.98428534816177    4.39195990595393
H        -5.44715489952599   -3.99534262545539    5.95411876891345
H        -6.01463326954305   -6.38525037453993    5.76591714619262
H        -4.95258687625437   -7.77753899012197    4.02754054033130
H        -3.32981003988535   -6.77053446018632    2.45642720320547
C        -0.76446384750719   -3.58732066089742    3.35361361430241
C        -0.15603822194333   -2.33921825974928    3.38506733043581
C         0.87317252952258   -2.09401929383675    4.27845076441435
C         1.30722679188225   -3.09088064213670    5.13472976207569
C         0.71426167964182   -4.34262284608944    5.09828512656462
C        -0.31357665601053   -4.59047195017699    4.20825305655195
H        -0.78299828678808   -5.57183521775433    4.16238330317178
H         1.05827419708742   -5.12506002687640    5.75897179345431
H         2.11356050164754   -2.89586337988048    5.82628261712679
H         1.34205921508208   -1.12090766363367    4.30054201083242
H        -0.48104526453251   -1.55351385551382    2.71258451221298
C        -2.91865291499726   -2.32468981215325    1.55293657153964
C        -2.18667976324833   -1.91875656976084    0.27181177718790
C        -2.50812476007436   -0.49262612813905   -0.15374114541082
O        -1.91468772816859   -0.26935952227489   -1.40340042943955
C        -2.13697651370810    1.04742986429424   -1.86567099024133
C        -1.61512259390204    2.06535675005555   -0.85082326070801
C        -2.24537472909933    1.73103333648358    0.50148335933679
O        -2.01478982606370    0.37702911182001    0.83247223064128
H        -3.60953465673604   -0.34452289392329   -0.24310852007782
H        -1.80603401161495    2.31658855945859    1.31080379785248
H        -3.33083633941039    1.92022629453350    0.46474076146506
H        -1.87159170460130    3.07902910766613   -1.15504337970421
H        -0.53110063845740    1.97119518036812   -0.77383546248637
H        -3.21610950712458    1.20202059528428   -2.02891549900184
H        -1.61493831604254    1.12116141449093   -2.82090381389863
H        -2.47013158923944   -2.57861432166575   -0.57455843914131
H        -1.09648741582356   -1.96804529879951    0.41469497479471
H        -2.77945413053333   -1.56145326763028    2.32605227640171
H        -3.99135781415528   -2.44363671593060    1.35862929886570

