52
CSD_code = MAWGEW | q = 0 | S = 0 | Stoichiometry = C19H26N2O4Pt | MND = 5
Pt        1.68502433185468   -2.34451396760553   15.97763282189230
O         1.90649793585382   -0.80077515786002   14.72846739155238
O         3.20115910900652    0.89955211261024   14.26011809585725
O         4.63359855630387   -2.02565576838979   15.50047360822178
O         3.80300692458933   -2.25777318897281   17.54840278406004
N         1.63948020958499   -4.17961398970423   17.09114969339234
H         1.82490059174995   -3.98643192950291   18.07569523810078
H         0.78144946076345   -4.73227316535100   17.02466971663694
N         2.66997785223096   -3.55243283823524   14.58323684001673
H         2.43550722114317   -3.44606912850227   13.59672329077678
H         3.61721836537037   -3.11145166349793   14.73376374274709
C         2.78392460787785   -4.94955690875627   16.55153089594691
H         3.68577653859314   -4.39693512857259   16.84862610673211
C         2.70149380812434   -4.95217817265627   15.01848701572910
H         1.76619403465091   -5.44197250896445   14.70673571225833
C         3.89937623827805   -5.70663521322741   14.43578571214686
H         3.82879519747262   -5.72668994595636   13.34654383162282
H         4.81142036319818   -5.17128814618565   14.70669941350128
C         3.95397547513972   -7.12996974057019   14.98429379212776
H         3.06223076243237   -7.67782549762478   14.67007655371859
H         4.82297713988277   -7.64532216915525   14.57480079857084
C         4.03329558782230   -7.11371670918169   16.50757663964923
H         4.95140385698622   -6.61269595412001   16.81742134569460
H         4.06000902151761   -8.13472729798960   16.89023876769094
C         2.83518264472859   -6.37387641352715   17.09869176029916
H         1.91375459815714   -6.90216612676069   16.83381595428915
H         2.91380239427665   -6.35114181358776   18.18744693322207
C         0.22764224133955   -1.12891885492495   16.96653582250536
H        -0.07684479097543   -0.34601166326374   16.27705041800385
H        -0.57655134043870   -1.74394954440496   17.36425114292773
C         1.41660227947614   -1.00201170250142   17.67020514427955
H         1.54983410445602   -1.59004101034227   18.57743299816991
C         2.39429384598002    0.12584948663682   17.50369545405613
H         2.90678313381148    0.28139305114341   18.45356408467815
H         1.87175048311903    1.04689365108142   17.23107858156412
C         3.48629737677432   -0.13574331826748   16.43126772661257
C         2.85139257803112    0.03244876326557   15.03014136544800
C         4.02376135627649   -1.60544721664650   16.50580161635084
C         4.69899514817714    0.79676858377429   16.61736487219062
H         5.39684241175039    0.31273999458509   17.30613426864071
H         5.18308818298359    0.88732079136571   15.64265779038352
C         4.34826911452622    2.15977692262001   17.14131943386639
C         3.78075103837967    3.12031995561733   16.31138440401296
H         3.60311868434355    2.87550688164766   15.27557253519899
C         3.44434381999962    4.36698945853426   16.80694893432006
H         3.00420728687935    5.10423572450120   16.15073749970129
C         3.67316899222790    4.67565761357624   18.13777765028259
H         3.41202648598798    5.65083626257468   18.52341523180415
C         4.24453115016947    3.72938437558232   18.97012197725007
H         4.43306023667541    3.96420870235160   20.00838226573789
C         4.57846573305897    2.48122285937233   18.47378871500209
H         5.03213761941874    1.74980666391499   19.12936561055838

