74
CSD_code = MAWGAS | q = 0 | S = 0 | Stoichiometry = C25H42O4P2Pt | MND = 4
Pt        8.41042934884420   13.62306765800927    6.76689994273338
P         9.78886525881472   12.04657875171577    5.86567778218478
P         8.07135977179603   15.25294779676620    5.19657753140886
O         8.17421521582457   12.32197657665506    8.33272311330555
O         7.05422133797862   14.85605053426537    7.67871618349695
O         7.46177328158703   12.01169607795194   10.36957234178048
O         6.27596162356002   15.83030736076335    9.46529897687146
C         7.88013287913222   12.75899223375258    9.50656386753104
C         8.09483536231836   14.27109904880326    9.80887736714232
C         7.05283917580781   15.04848504462104    8.95264394439378
C         9.51448316300564   14.70679231126362    9.39755770159794
H        10.25252035845470   14.14948456269494    9.98036476476764
H         9.67925567370238   14.45320043193642    8.32500323665523
C         9.72996352660112   16.17577367131507    9.56522504630690
H         8.91252050696733   16.80735971843943    9.24162754614124
C        10.83192341192609   16.71112445101819   10.05659214365857
H        11.65218866607121   16.10263518370953   10.40166184047837
H        10.95646597618425   17.77648896477977   10.14977586916769
C         7.82811314101119   14.56289056967580   11.29750322912300
H         7.43408233057363   15.57831251060247   11.37530406719881
H         7.04776463772400   13.87104100684801   11.62629619587963
C         9.02602172748038   14.41156464623421   12.18753081825425
C         9.59663789694924   15.52051048039439   12.79959376641645
H         9.16440175305844   16.49790761223417   12.63842368977491
C        10.70841697471703   15.38796160632380   13.61305101645303
H        11.13956433435252   16.26180934701672   14.08145241524488
C        11.26810324515923   14.14054261117415   13.82697102370595
H        12.13843693063862   14.03578963912702   14.45953269686481
C        10.69910840033067   13.02591322976758   13.23323991272199
H        11.12361360001870   12.04665647983678   13.40654007015006
C         9.58543741480784   13.15975304218372   12.42416383786097
H         9.13209690326983   12.28976254305332   11.97344925782834
C        10.52585786704116   10.96028434430271    7.15400038211179
H        11.13869379812019   11.60530675977913    7.79071362958148
H         9.68650839395920   10.62295610286920    7.76691349606103
C        11.34204120354252    9.77369375639916    6.65730018011868
H        11.68242928804703    9.19127011432688    7.51085762336676
H        12.22103298924151   10.09255544200730    6.10139510239812
H        10.74785896187690    9.11988456852815    6.02399915147123
C         8.88854291880557   10.90951351580291    4.73379740214336
H         8.49360690408262   11.52592024785462    3.92118567382802
H         9.57541133414915   10.17868733852657    4.29991673142252
C         7.74417440723881   10.23415088015834    5.48235602282016
H         7.03617636256627    9.78631518321160    4.78859507974115
H         7.21902231672979   10.96723412679402    6.09628666256320
H         8.11643417140601    9.45615227338999    6.14354904889652
C        11.23055276569326   12.58595046488334    4.84521928369651
H        11.86744005448216   11.72652025174480    4.62847654485583
H        10.84346578057556   12.96247319830069    3.89658568035365
C        12.01143422543186   13.67522833188853    5.56951774751575
H        12.79068460917520   14.08736930038280    4.93180883894271
H        12.48008003688221   13.28191451077446    6.46833732464233
H        11.33588695751793   14.48038097724839    5.86340652910573
C         6.28290944316811   15.21568441569453    4.78745134082768
H         5.76333122652382   15.55415616702338    5.68616391410480
H         6.06242750973629   15.90939712047441    3.97267565113160
C         5.84720314660268   13.79467105884851    4.45039820904584
H         4.77013486796587   13.74649106133776    4.30700921938889
H         6.11452646581767   13.13342194784505    5.27771112503934
H         6.33117013448133   13.43483908912073    3.54370112449219
C         8.92616373076423   15.19394139765344    3.55179106872339
H         9.99904162343784   15.23266724690719    3.75237196954752
H         8.71048687431876   14.20899893722672    3.12904023958079
C         8.55115892350783   16.28215083818675    2.55458761550248
H         9.10911334853072   16.13888727533623    1.63091519412842
H         8.79064798269731   17.26946361517682    2.93993243127116
H         7.49248608183868   16.25100322903636    2.31172149498602
C         8.30538535930343   16.97949102595008    5.78019509907665
H         7.88039474493192   17.66036416136751    5.03729122176479
H         7.71511851786988   17.06796822490367    6.69500813833270
C         9.76499504613863   17.31480040002507    6.06207653198912
H         9.84855991731012   18.32508096580454    6.45676150519874
H        10.36801000905253   17.25171636543832    5.15802815501757
H        10.17564587080271   16.63156806474077    6.80383941815678

