32
CSD_code = MAWHAU | q = 0 | S = 0 | Stoichiometry = C13H12Cl4N2Pd | MND = 4
Pd        1.82566851791914    8.16020687380171    3.74561788146947
Cl        1.38455634505188   10.11953750351632    4.70995038127578
Cl       -0.85888214031965    8.22433285970620    8.45702984240052
Cl        1.68817894718343    9.55148823303417    9.74225905705656
Cl        4.42878880812344    9.30746730834325    8.21517377062887
N         2.26725412564473    6.33992668657449    2.74194211508170
H         2.77234350841631    5.63309794597133    3.27553308829595
H         1.35286807232880    5.95595975395274    2.49018749634303
N         1.95361020460473    7.37245487466895    5.82455460297185
C         3.00624492374205    5.50793994707861    0.53544451651939
H         2.00671209857708    5.32217200876068    0.14614162069985
H         3.35798915169417    4.61154058579140    1.04530929910718
H         3.67302870762037    5.69756487731066   -0.30000643782801
C         2.99122743084593    6.69349094424393    1.50067462877537
H         4.02436420043651    6.93727495340279    1.79000557536581
C         2.33491092944988    7.94671193843137    0.94575793870533
C         2.31897271905696    8.25394388298988   -0.40682639963881
H         2.78877019029132    7.59452215314889   -1.12145185731414
C         1.70308588031204    9.41126442693940   -0.85311473331873
H         1.69841958981713    9.64180315611863   -1.90839594306056
C         1.09539783259891   10.26409429298279    0.04907042628159
H         0.61123654545309   11.16503024641096   -0.29833923054362
C         1.10857604846475    9.96984657501023    1.40571274056682
H         0.63757900430308   10.64974918338703    2.10327433862087
C         1.73414250171637    8.82081295077344    1.86684717487746
C         0.79259302715031    7.47196554909292    6.46201298162322
H        -0.07203080252884    7.01648113458862    5.99084056124761
C         0.66273899841154    8.12966931934487    7.67967009484808
C         1.79044120201168    8.71983780976236    8.25528486920974
C         3.00431013926840    8.60840404420683    7.57284710594195
C         3.03614703955082    7.92978134591490    6.36018498242652
H         3.96875625280420    7.83572663473751    5.80970751135231

