35
CSD_code = MAWLOL | q = 1 | S = 0 | Stoichiometry = C12H19FeS3(1+) | MND = 8
Fe        5.98333855472808    3.47626006681529    0.11300383804307
S         7.41260618097011    3.47625552732763   -1.54124311143204
C         8.50302394544505    2.03128730756055   -1.22024780432492
C         8.65288780224619    1.68548105401025    0.24514794062199
S         7.01345706381699    1.81069286147897    1.08303831755237
C         7.49850566361220    2.19085047350677    2.80191024651064
C         8.27282966354633    3.47626304425058    3.05260658187528
C         4.38257707517909    3.47626886225316   -1.30493839785266
C         4.30199833735900    2.33391644079184   -0.48500358280361
C         4.11621176571861    2.77405948204468    0.85151670115598
H         9.46613173240550    2.22411859393085   -1.69016167288441
H         8.00524271809421    1.22140796998188   -1.75273986841708
H         8.99400690566180    0.65674543257737    0.36094606126912
H         9.35570382254541    2.34857850536490    0.74439147872670
H         8.07401393424202    1.33476301608704    3.15322629274758
H         6.54650780104590    2.21198636959645    3.33131315731727
H         9.21062651594068    3.47626226715304    2.49388291034600
H         8.55239949741509    3.47626445086208    4.11000463367353
H         4.47106905132702    3.47627577066107   -2.37606114899191
H         4.26251382315091    1.31411865199331   -0.82074848806484
H         3.93217170077735    2.13874031497360    1.69957457942428
S         7.01345845751539    5.14182871286219    1.08303388706427
C         8.65288865043446    5.26703601712805    0.24514196088223
C         8.50302322101727    4.92122545071847   -1.22025265918981
H         9.46613058642946    4.72839343474068   -1.69016706981938
H         8.00524076688883    5.73110298863882   -1.75274635265231
H         8.99400912255781    6.29577159974557    0.36093659850419
H         9.35570427665841    4.60393925021656    0.74438696384578
C         7.49850600431938    4.76167512108139    2.80190685709818
H         8.07401394676623    5.61776334455862    3.15322151955827
H         6.54650763057867    4.74054029082160    3.33130888230463
C         4.30199694921597    4.61860972775125   -0.48498880698394
C         4.11621285487062    4.17844878629914    0.85152638903824
H         3.93217155402971    4.81375655182303    1.69959256426953
H         4.26251242349011    5.63841226039341   -0.82071939841233

