106
CSD_code = MAWLOM | q = 0 | S = 0 | Stoichiometry = C45H56N2P2Zn | MND = 3
Zn        5.74048036708129    1.26279926297707    0.77478698216148
P         2.67974949823360    2.16293796450750    0.36760115610134
P         7.23376481763698   -1.63898058619580   -0.30957085509599
N         3.96530451406002    1.16132986589369   -0.05903988820609
N         5.99728513940272   -0.65956942019153   -0.14112906822276
C         2.31488187688180    3.32935681515589   -1.03303874876016
C         2.69182225749635    3.19443068308060   -2.37661728338534
C         2.20386181945441    4.09450608084628   -3.31378114699085
H         2.51336107319458    3.99308803958815   -4.34606178200043
C         1.33217525407856    5.11729953380427   -2.97554428785188
C         0.93465428646331    5.21969843659134   -1.65264717029241
H         0.24077946142814    5.99889326669642   -1.36533384852321
C         1.40156465755845    4.33982165882665   -0.68926615413768
C         3.67529428338106    3.23161073764845    1.51473370013507
C         4.52173051769593    4.29009732452734    1.16494991105192
C         5.14284074365733    5.02303194313089    2.17034698512513
H         5.78492334505478    5.84856828399833    1.89216409868350
C         4.97208281272283    4.72751507089706    3.51170133206019
C         4.16049766520734    3.65267880239937    3.84610504154666
H         4.02802414600266    3.39461068346810    4.88855843723424
C         3.51303093846065    2.91095625277677    2.87208372594139
C         3.68393458210417   -0.09607971317517   -0.53369912186160
C         2.41701687257545   -0.48889466229003   -0.97486164057188
H         1.61100980987377    0.23209652425389   -0.90765641278430
C         2.18215028220378   -1.74928513028469   -1.48761004729375
H         1.18887857513315   -2.01476767228589   -1.81981082152362
C         3.21614197012827   -2.66308739679844   -1.58803212811880
H         3.04850333081899   -3.64695110243628   -2.00014927149861
C         4.48098727584525   -2.29793553878000   -1.15491529092259
H         5.30662711122216   -3.00178776800187   -1.23512445500220
C         4.72925367592708   -1.04295622487693   -0.62720955289591
C         8.55931691022708   -0.99794833260519    0.74311612923401
C         9.60490366800707   -0.21784021510195    0.24436476621510
C        10.60789695584257    0.19892315051407    1.10798830062915
H        11.41325095368755    0.80658402469037    0.72027865471405
C        10.59261492653307   -0.13379680201944    2.45323648605428
C         9.52917380349436   -0.88562415277460    2.93688187313581
H         9.49150589106888   -1.12788900387813    3.98974682659564
C         8.50849578638939   -1.31980801508884    2.10730150243294
C         7.81787494886227   -2.15615160271821   -1.96566183904758
C         7.37942931797527   -1.55834819089994   -3.15469115657726
C         7.82552169564133   -2.06915335168525   -4.36675112635700
H         7.47894722367277   -1.61024867726011   -5.28190561303949
C         8.69639459576434   -3.14381308452065   -4.43668436195786
C         9.14221264160365   -3.70525226057426   -3.24808494318194
H         9.83394663920601   -4.53548056408867   -3.28249458211023
C         8.72134148530723   -3.22945261009277   -2.01763113735045
C         3.61394254072742    2.11745254322204   -2.86851166670169
H         3.83766715864424    2.26675271451508   -3.92379902415012
H         3.15486032358713    1.13685195454618   -2.75062812916839
H         4.55102731664159    2.11024585267344   -2.31478831969002
C         0.81010158357857    6.06030050188306   -4.01781571259302
H         1.55631188884979    6.23642982230357   -4.79010791195300
H         0.52932377205033    7.01288727358997   -3.57367105857093
H        -0.07438866893507    5.63645579269550   -4.49553353658099
C         0.92172666724073    4.49694874783588    0.72159231239431
H         1.71272341598621    4.89279162665262    1.35919442314531
H         0.62208600627849    3.53042245634186    1.12828387942314
H         0.07161519926595    5.17524229498651    0.76524892769922
C         4.79936851345587    4.68184020951014   -0.25532792978415
H         3.98773361096298    5.28757515736477   -0.65784451861623
H         4.90891713286739    3.80056321103139   -0.88181815645970
H         5.71600407225149    5.26738683141222   -0.31197961456318
C         5.67169766257329    5.51667337532952    4.57734263477301
H         6.53255208700619    4.95958520736004    4.95106376272492
H         5.00613842108754    5.70387056333060    5.41836888047399
H         6.02518227745149    6.46903758112828    4.18821601335695
C         2.63207154172010    1.76919864285951    3.28568938330180
H         2.71622690880316    1.58356014953306    4.35475144909829
H         2.90782969149723    0.86000405976211    2.74997791123441
H         1.58997747651174    1.98832943026786    3.05328711890860
C         9.65479385893183    0.18727261317879   -1.19521770843549
H        10.09101522274446   -0.60442003822680   -1.80595541610575
H        10.26250427334166    1.08148757765050   -1.31847933084194
H         8.65093029266501    0.39355160878556   -1.56177783251478
C        11.67346750688412    0.32458105315991    3.38190566277694
H        12.46417145107539    0.83702796120965    2.83952613766046
H        12.10365262966661   -0.52362015854986    3.91323627288265
H        11.26405507442511    1.00783593653263    4.12632260505923
C         7.36875760850462   -2.10041819519789    2.68478940890992
H         7.51829184985352   -3.17175335079498    2.53815773045769
H         6.42862379887735   -1.80875565826046    2.21492064466746
H         7.29054554073593   -1.91807980085302    3.75437213741744
C         6.43599701385951   -0.39745508767983   -3.18920273850901
H         6.54853123704939    0.15234781648091   -4.12149185171044
H         6.59574977361075    0.28458308624578   -2.35676289396152
H         5.40615078845792   -0.75137011034671   -3.12726056696288
C         9.17526910087748   -3.66843781617068   -5.75408007176094
H         9.27022585530086   -4.75171802954636   -5.72665681683914
H        10.15648969506788   -3.25227228825835   -5.98486243195135
H         8.49299737421285   -3.39210242605431   -6.55381813590187
C         9.24636318534783   -3.88331668655677   -0.77536908526325
H        10.14966501183521   -4.44625558109457   -1.00136251893123
H         8.51196932968701   -4.58217354498057   -0.37190557549644
H         9.48034198449264   -3.14718446683332   -0.00728274848078
C         7.18355090581047    2.09624904439293    1.91501439233271
H         6.72360832835304    2.65692523083445    2.72872751246444
H         7.79134193215552    1.32217283433837    2.38389662698725
C         8.12319412879858    3.04205678767669    1.16837043971217
H         8.62702772022529    2.51099954705451    0.35760288925176
H         7.55398954405996    3.86272742005891    0.72900430152659
C         9.18033579330645    3.62279533011265    2.10604000667251
H         8.70419980431106    4.18102473680244    2.90915676751605
H         9.84929724021098    4.29331971601620    1.56947105004847
H         9.77259155797506    2.82321011824769    2.54641277388511
H         7.00966658300855   -2.90717350691984    0.23812507239261

