75
CSD_code = MAWNIJ | q = 1 | S = 0 | Stoichiometry = C37H31CuN4PS(1+) | MND = 3
Cu        4.96027491761624    7.23143449097454    3.49462100244284
P         3.00329968413623    6.99876566008479    4.50587034155399
S         9.73192672897274    8.20585364088031    5.45984027804426
N         5.62482230662927    8.54346575335829    2.08700995124079
N         6.85433353409363    9.05092752930666    2.22068804293128
N         7.83268831923716    7.18626986923367    3.27113572106111
N         6.78676060577776    6.42169558652749    3.60137300538351
C         8.90007283493412    6.42824237593916    2.95732781252603
H         9.83891894705084    6.86062266296220    2.67945559993663
C         2.51511068421972    8.39930321718616    5.55652666512498
C         6.47444110126860    9.79954109848280    7.24199370953972
H         6.16855562867278   10.06169529280206    8.24252284213695
C         7.11683619680434    9.92869253054266    1.23419273676572
H         8.05302084488989   10.44412403968202    1.16790272315490
C        -0.54946571284721    6.33440950042942    1.68208879494997
H        -1.37383348322220    6.16225894786483    1.00729640575761
C         1.56294285137887    6.77886307008979    3.41922685422417
C         4.13209711123128    5.13782968573532    6.18002445247493
H         5.04720172346252    5.65538717925940    5.91355063826780
C         7.25971719434183    9.08763502697562    4.66886575413686
C         6.01822271364904    9.66653892872084    4.89308508281335
H         5.34782685454367    9.86309873490303    4.07105919701295
C         2.48185849533333    8.32818295880438    6.94372014639566
H         2.71032240498915    7.39764526077035    7.44328717792134
C         7.72309609776385    8.63097021848265    3.29454560596414
H         8.72633925805174    9.03364835189263    3.09961068082980
C         7.72003943269889    9.24094974296209    7.03412545451427
H         8.38477033418538    9.07145098441357    7.86733510520312
C         8.12908040328671    8.90118615071225    5.75063074033059
C        11.51810175415847   10.72422033571762    8.06279595503518
H        11.54376852528051   11.78655756676005    8.25102345558340
C         1.74376481560473    4.91220710444210    5.94378773245995
H         0.81007675194877    5.23630009286402    5.50724827211979
C         2.92797998977736    5.56921729128792    5.62880802225975
C         0.27547363319536    7.16645063068023    3.77885619652273
H         0.10028964609035    7.64736690748041    4.73140332592590
C         7.18301321259114    5.16443982136540    3.49557593024530
H         6.51021535910236    4.35833942162290    3.71225775845177
C         1.89751119968391   10.72155988972335    5.65589616730239
H         1.67078425208256   11.65251566787902    5.15813151190151
C         6.00041206347937    9.98843684669744    0.43266390279616
H         5.85936110251572   10.58488264986963   -0.44354433831918
C         2.23610834847821    9.60556410774618    4.91548536756770
H         2.27670482903565    9.65206821353619    3.83430744998951
C        11.45814828317986    7.99319313470281    7.56890151424818
H        11.42742979286071    6.93383643331009    7.36415786266814
C         5.09345433021224    9.09709990144363    1.01157997757265
H         4.10066646233818    8.84071325356610    0.69907381572128
C         1.76984455533094    3.83600150616687    6.81315177643759
H         0.85183803367927    3.32354819239665    7.05785676513589
C         1.78734562418865    6.17705349954839    2.18415409748718
H         2.79752441939805    5.89167348663342    1.91444273219578
C        -0.77516731095518    6.94172507803505    2.90743272284495
H        -1.77452443023573    7.24082251842192    3.18554630764586
C         2.96766416535162    3.41370438699216    7.36770984695507
H         2.98057144887481    2.57267876727080    8.04388225035899
C        10.69479028613686    8.86547537581509    6.81033066231822
C        10.72714627768970   10.23268460352094    7.04055885752370
H        10.13441601320555   10.90067422326364    6.43273052954337
C         8.52005243348281    5.11406589912071    3.09451152867409
H         9.11850169230744    4.24330187259041    2.93000684907656
C         5.62800891991231   10.02879026182738    6.17089377400657
H         4.66440559093971   10.48623958210325    6.32531137714274
C         4.14983404403223    4.06518169647837    7.05187754250057
H         5.08294256719893    3.73304943116473    7.48181526950197
C         0.73245776970725    5.95247611926542    1.31921173917028
H         0.90751571722787    5.48403443738850    0.36239640703128
C        12.28219301282340    9.86033766053421    8.83171746667743
H        12.90249159808479   10.25103198717883    9.62331413033221
C        12.25485211565838    8.49846722524269    8.58206662156907
H        12.85193814840939    7.82447926279994    9.17658703973716
C         1.85076354551392   10.64426625391654    7.04063734887360
H         1.58525374268759   11.51576956838340    7.61936753485022
C         2.14544824761379    9.45154192480718    7.68031072332590
H         2.11014940685102    9.39376741843990    8.75775569651923

