75
CSD_code = MAWNOP | q = 1 | S = 0 | Stoichiometry = C37H31AgN4PS(1+) | MND = 3
Ag        3.36854928706219    7.39869289521292   12.42499868448531
P         5.51388840704774    7.15186676259835   11.28202874732345
S        -0.68740760631147    8.06295281886712   10.74920814180470
N         1.57150088534030    8.78238527065497   14.54288379659358
C         6.90912122670814    7.03335833398234   12.44372708721207
N         0.43448735496820    7.22099081942611   13.22798514172741
N         1.32041599196229    6.35659471208227   12.72442386104960
N         2.77880473718289    8.20800296302612   14.61340042691919
C         0.75421413413605    8.62492249873486   13.36311405665763
H        -0.18996732093737    9.16252649324245   13.52518282346108
C         1.24639094151190    9.37637279962301   15.70819122864557
H         0.31466908380930    9.88717717413218   15.84260143604241
C         0.86254818544468    8.91259662552551   10.85325205917341
C         3.23371060075844    8.44880751797329   15.82898065111296
H         4.19927492341041    8.09154007863355   16.12797785149972
C         2.67970356626736   10.08569530174711    9.79140783862710
H         3.16731372887505   10.42588752711050    8.89146078527595
C         8.23106575055172    7.27833948285314   12.08661862734201
H         8.47260940535998    7.61985183686120   11.09017604066794
C         4.73090946789322    3.44618264814202    9.81831886515952
H         3.92525548118564    2.73137900840744    9.89190012523696
C         6.81045886327238    5.28019788506344    9.62184028047611
H         7.61653621197597    5.99501922904703    9.54267921053682
C         2.59640536195381    9.92725881934409   12.18425389984226
H         2.97808743788517   10.24363962210286   13.14528726800460
C        -1.75770510913614    7.71995241572261    8.25571777917554
H        -1.63676459052268    6.66573339141981    8.45328393538285
C         7.61585048117061    6.43733449847667   14.66456551241298
H         7.38053954454687    6.11085874777159   15.66632128485372
C        -0.49813730941344    5.24948521437497   13.40742747292347
H        -1.18076889565099    4.45193946553669   13.61120343424149
C        -0.67281362604186    6.58726809668543   13.66133292240589
H        -1.49649671189569    7.11793489745103   14.09307689120524
C         2.30308228555452    9.18901818794909   16.56612126523720
H         2.39347874411959    9.53250549146617   17.57477301828423
C         1.51063303394063    9.35669366878295    9.70365710303955
H         1.08066407225742    9.13981930138570    8.73788230043448
C         5.67533538057457    5.58786736855001   10.36650492048960
C         1.43701766055271    9.15079966684867   12.11069324854389
C         6.60685068820037    6.61623461298623   13.73710261549220
H         5.56374543153783    6.43603821357913   13.99950506605652
C         0.76827842675095    5.16082721658262   12.82203174521305
H         1.28623427337912    4.29007692405423   12.47049677441581
C        -1.34277758034191    8.64963502303058    9.19505901014462
C         8.93239087910918    6.67942338316488   14.30457452932070
H         9.72216236748775    6.54243158110137   15.02703119368847
C        -1.50221430130698   10.00978294739977    8.97561311005705
H        -1.18519191787366   10.72155555207069    9.72380239041549
C         3.20941320815780   10.40037968140996   11.03257653195927
H         4.08729525436402   11.02188684926960   11.10906614317331
C        -2.32785188168482    8.16123435152358    7.07377874163194
H        -2.65428352176017    7.44225529423690    6.33843363831411
C         9.23646349800597    7.10227742719262   13.02036122777540
H        10.26221519730182    7.29498767022169   12.74474122003945
C         6.01632930869586    8.42289983112253   10.08957540676626
C         6.57595293319217    9.61061704403029   10.55607105757713
H         6.77662510531708    9.72619652937506   11.61342040687225
C         5.86143214905813    3.14317853287362    9.07690222204387
H         5.93626617393805    2.19151487768413    8.57361539788214
C        -2.06289161205148   10.43910434196653    7.78668918820931
H        -2.18572669312303   11.49617577662385    7.60764737645525
C         5.72770694406770    8.27921859898223    8.73579473484041
H         5.27166957376035    7.36619955182797    8.37808254568264
C         6.03415978669925    9.30013495554321    7.85396497797348
H         5.82078605221988    9.18239377398883    6.80211368751850
C         4.63811927196729    4.66638419728626   10.46296826632201
H         3.75717567329431    4.92577498503312   11.04999575187177
C        -2.47681788315144    9.51759846702325    6.83751653577383
H        -2.92056714473097    9.85865572757877    5.91510936654367
C         6.89749612319163    4.05967512953229    8.97878662417122
H         7.77644232052714    3.82012152708474    8.39981085172222
C         6.88146196188350   10.62561940423034    9.66867595870911
H         7.32874228330927   11.53989902806237   10.02928668095412
C         6.61377180448805   10.47049327971009    8.31714790351164
H         6.85537477869431   11.26326817578467    7.62579109735301

