95
CSD_code = MAWROU | q = 0 | S = 0 | Stoichiometry = C36H52Br2N4Pd | MND = 4
Pd       20.87307935299769   10.02291297503926    4.08087506836267
Br       18.54738086090086   10.32037150243795    4.81833536519833
Br       23.20908370197959    9.56605409142040    3.43695554141091
N        19.74060361494561    7.57868026567406    2.70590154427045
N        20.75050955458001    7.02223743114424    4.55074144796415
N        20.82473279354434   13.03342152096058    3.60838788971322
N        21.13188333871326   12.54866998840431    5.71194992428849
C        20.44260550004987    8.06321884874971    3.75121442781631
C        19.59734430038535    6.21296150930218    2.82488490982886
C        18.98715316708400    5.25143282214357    2.03087953936171
H        18.49618406344677    5.49795721999515    1.10403908969643
C        19.02479136156675    3.94140130641654    2.46416748161546
H        18.55781840736929    3.17415542429470    1.86570942064225
C        19.64945744735185    3.58960611035453    3.65684685767457
H        19.65317648451441    2.55567804467844    3.96643166893042
C        20.26595275836796    4.53468440619008    4.45176003908743
H        20.74217368759956    4.23812233456991    5.37146608259468
C        20.24305391293975    5.85489541186006    4.02305015838760
C        19.24694877366000    8.40273371243983    1.61852110622868
H        19.50803398221125    9.43922620895882    1.89870797926612
C        19.97385816187607    8.04266543699228    0.32368975774189
H        21.04647822074253    8.17920514507085    0.45287360582345
H        19.63782911787543    8.68110693953617   -0.48853403354596
H        19.79084955535966    7.00848653843415    0.04584197123917
C        17.72599517602160    8.33096849883772    1.50968759146122
H        17.38387467793208    7.33982674354223    1.22934809944543
H        17.38156556455080    9.03915485462967    0.75991130784957
H        17.27686801553297    8.59791583602006    2.46436184528777
C        21.50455620689263    7.15311016605577    5.78395837229311
H        21.78202101451125    8.21420766507030    5.84040271041571
C        20.61915650411337    6.81462110606594    6.98200722870106
H        19.72821185334768    7.44076778503156    6.97230211132333
H        21.16016593532284    6.99559406378866    7.90691124601712
H        20.30593283627662    5.77450407094007    6.96403079340510
C        22.79980006848056    6.34730789735906    5.73352008354120
H        22.61645768622230    5.27911459541290    5.67279818902142
H        23.38297454818812    6.54787707701309    6.62852962398216
H        23.38655931963849    6.65188182375914    4.86942947362342
C        21.10657859567550   12.04346227595472    4.46765759009026
C        20.64001524991626   14.31750725624612    4.28463190206599
H        19.69657311422840   14.78014124533603    3.99072619296978
H        21.46484199618358   14.99482953953292    4.03838659291061
C        20.65337748324291   13.92912246804011    5.74968126742690
H        21.30722871806000   14.57054944029176    6.34067455110932
H        19.64723365155571   13.94793493919220    6.18376593744661
C        20.60397922297553   13.00723673066516    2.15700717545561
C        21.31947161331659   11.82963747784728    1.49338703684837
H        20.95708430602609   10.88105276235214    1.92559009313902
H        22.39446407479923   11.89903510212844    1.67944235431970
C        21.05348157086321   11.82349729884785   -0.01133967212667
H        21.55911933131046   10.95863847096302   -0.45385477889223
C        19.55220104918516   11.73706595481253   -0.28306018987330
H        19.37133466570925   11.73759865788695   -1.36039300883588
H        19.14378313356643   10.81287751026893    0.12460793472016
C        18.85046048936871   12.92732751698194    0.36474115238660
H        17.77227048719394   12.86408584630080    0.18021658936497
C        19.09775698323475   12.90463902188232    1.87207544352134
H        18.70901089670406   11.97926239025209    2.30725757206252
H        18.56859420857824   13.73559525832315    2.34352987113984
C        21.60272098165415   13.10674693878038   -0.62842356543155
H        21.42937273345073   13.11011403221540   -1.70651284845806
H        22.67997430672360   13.17088633898257   -0.46140935743483
C        21.15300252127914   14.29787674096160    1.52588277399002
H        20.66169269201950   15.17596598147767    1.94611021893403
H        22.22490656315734   14.37197964502217    1.72478219321690
C        20.90167985260946   14.29744135343482    0.01788897260956
H        21.29631108074143   15.22895596546260   -0.40368331506039
C        19.39694883271632   14.22083415620226   -0.23649353572119
H        19.19966734587873   14.24201081013116   -1.31031283814087
H        18.89812196200152   15.08374992019181    0.21125063728184
C        21.71428941657190   12.01726523110882    6.94694043649350
C        21.89032707979920   10.50111493198020    6.88250709711642
H        22.57566943571058   10.26648982696587    6.05851544712060
H        20.90215369075679   10.03737538217046    6.73492789870154
C        22.50700406182754    9.97620149141196    8.17914795535872
H        22.62711079286010    8.89040077856067    8.10401571806569
C        21.59378271823197   10.30959951017610    9.35490294608761
H        22.02462935514063    9.93233175877359   10.28473425886959
H        20.61903512030138    9.83568567694718    9.21905204813749
C        21.42863899977875   11.82440658910695    9.43170737911207
H        20.77112097691645   12.08024512405082   10.26992772420400
C        20.80246787762187   12.34571876713173    8.13796143904871
H        19.82380204988737   11.88695285022664    7.97876589113671
H        20.66064033759815   13.42292858626688    8.23225078079308
C        23.10081271254659   12.64921492777765    7.16186978226812
H        23.02543024398031   13.73751271968824    7.20983232138824
H        23.74506274058049   12.39369682646354    6.31674759447841
C        23.87792127902264   10.61659340761931    8.38287967146477
H        24.53613212439544   10.35806375680638    7.55071673270759
H        24.33364332007517   10.24139196489390    9.30150517752211
C        23.71005529224702   12.13126271043567    8.46416459439375
H        24.68840920586056   12.60212078272468    8.61101779081871
C        22.79359855869198   12.48160184328378    9.63623211289653
H        23.23764374677818   12.13055561884027   10.57000023857695
H        22.67783762171234   13.56577251083008    9.70947050017175

