69
CSD_code = MAWYOZ | q = 0 | S = 0 | Stoichiometry = C36H26I2N4Pd | MND = 4
Pd        5.25369228592205    6.04317952657595    3.46107484621607
I         3.87994489164972    4.23502178506351    2.14163296034776
I         3.31532442410193    7.78925307398866    3.76817097849213
N         7.18772547755433    7.70125301882961    5.14964121400998
N         5.60370144597548    6.69536896347116    6.25821272845579
N         7.85869600190419    4.47669062229479    3.15769590002040
N         7.13009898758309    5.43739609210909    1.34226751548688
C         9.12288580235871    6.69583032262852    4.16096594911154
C        10.16804279292949    6.69765663240902    3.20650787600965
C        11.16808340591527    5.70289674155968    3.19745673666101
H        11.15838643670658    4.95153061166195    3.97378652683069
C        12.13897640938741    5.70253337111522    2.23680172095693
H        12.90173613036634    4.93889913416000    2.23685255362158
C        12.15440384527390    6.69337287694884    1.24317729942543
H        12.92121819440213    6.66916383060933    0.48378309185830
C        11.21875221582072    7.68896103125881    1.24613472588377
H        11.23974299626051    8.46700261241286    0.49698256530453
C        10.20989603588985    7.73013595862851    2.23164583545153
C         9.24545046378190    8.75909053353605    2.26762510619588
H         9.28102627094797    9.53242565241097    1.51480312610164
C         8.28206295506753    8.78402088861023    3.23715718812413
H         7.54148297369025    9.56873633579124    3.28002473083966
C         8.22229271226427    7.74514392759564    4.17759248072445
C         6.15041798431606    6.84419264431846    5.03789641603800
C         6.26848866966819    7.48629926145727    7.16840266753970
C         6.09298668570866    7.70039919868735    8.52556350569385
H         5.30882295313821    7.20672026719702    9.07666715041118
C         6.95651701612315    8.58947696575177    9.13773901543331
H         6.84761796781185    8.78662340802489   10.19295605803052
C         7.95450579516588    9.25054181908510    8.42537638908167
H         8.59424700043003    9.94881777384416    8.94243761879298
C         8.14062235887177    9.03859083324677    7.07217251913699
H         8.90685041968260    9.55606021746389    6.51624322932893
C         7.29017961465201    8.13677294586559    6.45758931967761
C         4.50049464193854    5.81614332641875    6.55467440914634
H         4.29515579047378    5.18427474579246    5.66937744406597
H         3.60268933852422    6.39175962870864    6.79445361403253
H         4.75846730702437    5.17410513737069    7.39909212798708
C         8.86795916758821    5.53391360751851    5.05436420515560
C         9.19165076746493    5.55706565904294    6.43208455259864
C         9.97784121290299    6.58475680321122    6.99373682192390
H        10.38297976492751    7.34333970995746    6.33971051151035
C        10.23578574062745    6.60810674439418    8.33478982546726
H        10.83898613467677    7.39708037837433    8.75739503507546
C         9.72079854523222    5.60816500221704    9.17394537494330
H         9.92346330191090    5.65042991544572   10.23338190894629
C         8.98426941025893    4.58175552401646    8.65370050272162
H         8.60455601003310    3.79728618241328    9.29201803766220
C         8.70998933343699    4.51686344310291    7.27121528570641
C         7.96833720736822    3.45710977189245    6.70810837054907
H         7.59812858119688    2.67803261047044    7.35775355821695
C         7.72102499986010    3.41031451519430    5.36447782320447
H         7.15931207686727    2.60249688317435    4.91948760177559
C         8.16850477503149    4.45588537133570    4.54356168681208
C         6.90539415415583    5.29355447297002    2.66100037530979
C         8.21977239157918    4.68315495223679    0.96843146755505
C         8.84237080392301    4.48003483192285   -0.25209362671598
H         8.48308466366148    4.95129613488574   -1.15274700768727
C         9.93363346130562    3.63159774983262   -0.26677405120708
H        10.44184240262044    3.44424741786681   -1.19995823010446
C        10.38586861792224    2.99882267850883    0.88886986887486
H        11.23139562096181    2.33150868411424    0.82577270306952
C         9.77416628841149    3.19994929859393    2.11201055714410
H        10.11650761251603    2.70377095607033    3.00672465851777
C         8.69214892336953    4.06187710950134    2.13599032049169
C         6.34948439129498    6.27868665859348    0.46993922658599
H         5.65984396176555    6.89119465382637    1.08178091676734
H         5.76245508257459    5.67310013721401   -0.22543542614473
H         7.01125789527206    6.94066042519811   -0.09187799525242

