133
CSD_code = MAWZIV | q = 0 | S = 0 | Stoichiometry = C60H64N4NiP4 | MND = 4
Ni        5.37300694778823    5.34412432005734    4.58740323769713
P         6.66377138812007    5.74910407585266    2.86735248378088
P         7.16988062764179    5.34854959062417    5.85238134387078
P         3.52346768084045    6.47093398438660    4.90972643156300
P         4.17703986643853    3.51398630917294    4.70708833053084
N         7.91598122922480    3.50960978748238    3.90224945688596
N         7.69576381257827    7.75023760257524    4.53225564740171
N         3.26616040587067    4.69844074301003    7.05554727315451
N         2.66860713139798    4.83003731786435    2.83720581869714
C         8.09126864060914    4.52722503616204    2.89841237560801
H         8.15319587579089    4.06135117280127    1.91367688499524
H         9.03700570922583    5.06713726256266    3.07527790336511
C         7.99681552402301    2.16868145133561    3.55812535680740
C         8.59174480860625    1.21520864337656    4.39247390171032
H         9.07910883019723    1.51176156553427    5.30851859610745
C         8.59990958042006   -0.12425750969902    4.05181805487347
H         9.07021323699957   -0.83348491254481    4.71829397424143
C         8.03115613266560   -0.56055660967723    2.86892502248018
H         8.04115670274537   -1.60757514763136    2.60767673218219
C         7.45506093392666    0.37328794856899    2.02398998898484
H         7.00513928674459    0.05942607381035    1.09267119645274
C         7.43542115443094    1.71124490668284    2.35944438815687
H         6.95424999408125    2.40634988678739    1.69065069761938
C         8.20666947918693    3.91224610892662    5.24950462773329
H         9.27733372503518    4.14371918520230    5.39912364562934
H         7.92089771245278    3.09202814219135    5.91237705819199
C         7.55782676868467    5.13719912042122    7.67370142807204
H         6.94238891569882    5.86858821168853    8.20039329813976
H         7.17426705572429    4.14696547542731    7.93479410951697
C         8.98543395170288    5.28508616735575    8.07232380539928
C         9.86487926417332    4.20672948647296    8.04386405033790
H         9.50059721831406    3.22943118206919    7.76250889408179
C        11.19275836636225    4.36255838645698    8.39698577895684
H        11.85876516886272    3.51216597344734    8.36774740670843
C        11.66815770233497    5.60071519767335    8.79421161958908
H        12.70552686745768    5.72286136639583    9.06799147771744
C        10.79811407117489    6.67541572755637    8.85826849858259
H        11.15315438407851    7.64011544096674    9.19064216569464
C         9.47022241697122    6.51682904186641    8.50578962607406
H         8.79365308800806    7.35631578993834    8.59096204132150
C         8.30857572759914    6.77664372550779    5.39192908973142
H         8.65809819609222    7.27203577401432    6.30014748710469
H         9.18930050153239    6.37782221358328    4.87415543941213
C         7.59613014445430    7.36017336455266    3.15699234737908
H         8.60354531306163    7.27557590384374    2.71957118009035
H         7.04086491051923    8.11695017005423    2.60197316874027
C         6.88167862992789    8.72875865903183    5.07108699124816
C         6.47104164870083    8.67808595761686    6.40788933078627
H         6.68591729010050    7.80726159713456    7.00680703873859
C         5.75496525263919    9.71562051416389    6.97321380641946
H         5.45419979267421    9.64841449995550    8.00962337501945
C         5.41080376530144   10.83108090750225    6.22883095242873
H         4.84950016019793   11.63877730742764    6.67334417761699
C         5.79590715038211   10.88740961223268    4.89962503278370
H         5.53914879024242   11.74981983814946    4.30091609884947
C         6.52274291300609    9.86253773648768    4.32954765271269
H         6.83546004493666    9.96447270584404    3.30098567913826
C         6.54591705483094    5.98475544240770    1.02761779439033
H         5.82948706373597    6.79853385143069    0.86615095569965
H         7.51788430531600    6.32298429003182    0.65092566345291
C         6.08354679329743    4.77972315021959    0.26407041048316
C         5.24280411236244    3.84045129231942    0.84508886247251
H         4.95853643712839    3.96319492092494    1.88350057577790
C         4.78266936331370    2.76065385826060    0.11287626618227
H         4.12794514288636    2.03682364028992    0.57487036846888
C         5.15791337146804    2.60393218371467   -1.20915223501901
H         4.79540535713400    1.76289941695605   -1.78147907534899
C         6.00555704713048    3.52907267317527   -1.79395014938410
H         6.30899543930972    3.41033377825259   -2.82387864971010
C         6.46620698012970    4.60773662279450   -1.06096278002288
H         7.12651487387132    5.32840726689030   -1.52420150710227
C         2.53853322087203    5.68478449938342    6.31275419248705
H         2.18493540739179    6.46228008080932    6.99335046189822
H         1.65519999544463    5.19422598836474    5.88442607282670
C         3.40265744619950    3.42109808249412    6.41859876197630
H         2.42536762128172    2.91763255394766    6.34929133443017
H         4.08154481903333    2.80017576066982    7.00370492677549
C         2.63868396050504    3.63444785151050    3.63687905645199
H         2.68011383742726    2.77136026899593    2.97309558299680
H         1.72520916545261    3.55600625481847    4.25140579870403
C         2.36186582510348    4.75368377279728    1.47761778157125
C         2.84325010264072    5.74095410633391    0.61188594734768
H         3.42253764294146    6.55823209579852    1.01442821554459
C         2.62751932223968    5.66543575980200   -0.74716714444780
H         3.02463477219501    6.43501195824382   -1.39350229817181
C         1.92294216134561    4.60273022845318   -1.28840417804427
H         1.76085981685189    4.53945224315592   -2.35346311681863
C         1.42802480207395    3.62627119383006   -0.44394906935437
H         0.86287036883707    2.79850404396310   -0.84848415047034
C         1.63577941774724    3.69891832712985    0.92113909690069
H         1.21267378776630    2.92997937552238    1.55125569576949
C         2.34790635816546    6.05693427332873    3.52043349022065
H         1.31392886168550    6.03271289619194    3.91526067675517
H         2.41483449191795    6.87650201714978    2.80389887886780
C         4.59274800427668    1.69919371363502    4.49546787459204
H         5.14556477500839    1.63721674575980    3.55404222411526
H         5.29353285155940    1.46348760501726    5.30109329960490
C         3.43962829227242    0.75632944643141    4.48508127501950
C         2.88523888554187    0.26605453526142    5.66365799846945
H         3.32524812094506    0.53533568264255    6.61256171085921
C         1.79191929662353   -0.58042668414287    5.63637851096546
H         1.37643786465751   -0.94939681637721    6.56304840431206
C         1.23263584814718   -0.96025051357263    4.42814535782146
H         0.37663888510650   -1.61815894112180    4.40748190917227
C         1.79276307709364   -0.50635408021501    3.24642395675007
H         1.37936442456250   -0.81631475411037    2.29745466485140
C         2.88757194198041    0.33779813410399    3.27681957570064
H         3.33840114449113    0.66072945895853    2.34837892635151
C         4.01485782957732    5.06349639324850    8.15333115717732
C         4.34748400373288    6.40384869378026    8.38490050611824
H         4.12023807105152    7.14864159980983    7.63813074203428
C         5.00691471755875    6.78381386597574    9.53746754527674
H         5.24990830856522    7.82624232012464    9.69135496448558
C         5.37244064561481    5.84644228241489   10.48916271691461
H         5.88955375771259    6.14674557179855   11.38762287836473
C         5.06762644320500    4.51439692902688   10.26358241531697
H         5.34405539554636    3.76790492159854   10.99474993809186
C         4.39567171204709    4.12559011767445    9.12262006714243
H         4.14198008495084    3.08269374805653    9.00211182974931
C         3.07430976738492    8.28130188989039    5.08255732195413
H         3.78236259584230    8.69770880893994    5.80188918765561
H         3.30356359806714    8.72494187793093    4.10945596570647
C         1.67583263253335    8.58161507785376    5.49834418434660
C         1.37233303662367    8.78190436929677    6.84304674726293
H         2.16520384402660    8.75476731284682    7.57787800777719
C         0.07631134570886    9.04188036447519    7.24951903706283
H        -0.13694231418196    9.19348940794754    8.29775971707460
C        -0.94341042636219    9.11533182047926    6.31632315892840
H        -1.95591613512182    9.31912529548701    6.63154972988890
C        -0.65183109944791    8.94363902880402    4.97374007284294
H        -1.43787452962101    9.01932092785107    4.23624152667664
C         0.64455172336718    8.68192737707906    4.56938024423544
H         0.86097314431514    8.57151645618119    3.51671865817412

