71
CSD_code = MAXBIY | q = 0 | S = 0 | Stoichiometry = C27H29MnN4O6S4 | MND = 6
Mn       -0.51799167451063    0.63730897354174   17.10595781069929
S        -3.99076560142541   -1.33138925698987   19.27931380969454
S        -4.11258243434123    0.61412583187899   16.97308655087397
S         2.79770408725588    3.46086172348850   15.57983957900337
S         2.52579580909357    0.49671967671696   15.09603324216720
O        -1.20601761884819   -3.45638514133006   20.43128288108917
H        -1.62731181763134   -2.80936284211538   19.82409548176733
O         0.57026942794822   -0.25101169691454   18.35116327119633
O         0.95268710866958    5.73112814516864   17.72719861367643
H         1.15369207621668    4.86464715059732   17.31068863957079
O        -1.00193735496497    2.03857778437989   18.26993843005445
O        -0.11816970334846   -0.68400102452364   15.84326549682533
O        -1.61236863850926    1.43208957738424   15.76428926294080
N        -1.32666133609367   -1.40541294296366   18.78028983702860
N        -1.88634107971692   -0.50587740649339   17.91870727105515
C        -0.35756295716647    3.12646121762286   18.04982992461682
N         0.65460984253062    3.16068885683360   17.21039792735336
C         0.09588221202289   -3.16045263380568   20.53933378714029
C         0.87890509937389   -3.95674031582928   21.37788797558040
H         0.39474813762770   -4.76858433283100   21.89776494890798
C         2.22591223255837   -3.70967284749450   21.53459146425613
H         2.81119501545826   -4.33828980640153   22.18946480042796
C         2.83135720500982   -2.65938940343539   20.85617285573980
H         3.88629431165073   -2.46788323012840   20.97982046333541
C         2.07410238568409   -1.86452074197262   20.02462587890216
H         2.51702045864297   -1.04188157870631   19.48315712952813
C         0.70752915706900   -2.09564759190657   19.85219675549827
C        -0.03818699008917   -1.21292566417990   18.94895092164662
C        -3.16884230049687   -0.40918121564426   18.02225832336692
C        -5.70282355851312   -1.17750525015132   18.66284454707059
H        -5.69768913436348   -1.51471020333369   17.62628593025718
H        -6.28994930560862   -1.86793753717765   19.26456284266139
C        -6.24429263770517    0.24367675750726   18.76134418527679
H        -6.50551255151935    0.47070851189705   19.79645522826422
H        -7.15195600971403    0.30028143190408   18.15741462087971
C        -5.22673476856447    1.27344258835566   18.27765991646302
H        -4.57379264804521    1.59966891966633   19.08618156915884
H        -5.70971958997353    2.14373368575291   17.83934245352066
C        -0.08301048849960    5.57829668609085   18.56147292803806
C        -0.52120987111791    6.69882782821783   19.27123363370223
H        -0.00153311019756    7.63053244547049   19.11146718861109
C        -1.58143252051544    6.61283114960758   20.14750906380497
H        -1.90169621861623    7.49238354079637   20.68621012796007
C        -2.23656160118890    5.40299241827009   20.34163310524073
H        -3.06481355527195    5.33717016395612   21.03061039952418
C        -1.81750614289552    4.28909255608687   19.64927559503424
H        -2.30346336736814    3.33404683811789   19.78304355064592
C        -0.74622373413856    4.35257012991255   18.75521338575806
N         0.90758789572726    1.94791096817492   16.63385589519888
C         1.94314887830759    1.94585552888461   15.86511439257516
C         4.35039193046125    2.78436972500411   14.89746504685408
H         5.03745089020549    3.62683283321241   14.85603423573967
H         4.71854870583977    2.05279789409400   15.61673993743957
C         4.17214119919314    2.14506306523425   13.52602694912882
H         5.06287736517580    1.55121075003286   13.31338915093682
H         4.08482237896574    2.91989820292250   12.76241181645483
C         2.92785188548937    1.26280045463252   13.47132648811210
H         3.05399412117851    0.43237165169560   12.78075106856704
H         2.04655261726486    1.83493488171348   13.18353985580210
C         0.18393501073805   -2.03772794186794   13.91170362207221
H         1.01514571361968   -2.43186885435158   14.49066325664678
H         0.51647991770686   -1.77975470059507   12.91006948889993
H        -0.58273022430242   -2.80708403336258   13.83295284664312
C        -0.38621067163958   -0.82759361905552   14.61206699884739
C        -1.18915934444644    0.07246959370472   13.90073255695775
H        -1.39461818932612   -0.11298863830981   12.86011562748144
C        -1.77433056452800    1.17527529215336   14.53192217104729
C        -2.68476192667260    2.09300348011899   13.75294889120510
H        -3.71009621534823    1.73917211572103   13.85478041766119
H        -2.41942544709593    2.10603766904824   12.70030764538287
H        -2.63204017236809    3.09721175629774   14.16641803453760

