53
CSD_code = MAXCIX | q = 0 | S = 0 | Stoichiometry = C24H22Cl2N2P2Pd | MND = 4
Pd        0.95368314049340    2.90468984452283    5.36260403149280
Cl        2.34416966375812    1.41710305498789    4.35827211794276
Cl       -0.78861639608739    2.35435257127690    4.01782073405467
P         2.66396227993092    3.68113606078382    6.56858208846744
P        -0.31353665796524    4.27984382348133    6.61245902382771
N         4.20094549936161    5.84678828945974    6.10208863135933
N        -1.73125657404965    6.53269185314891    6.75152221269210
C         3.37146830069006    4.99058665366650    5.51779720542806
C         2.99074761444020    5.08277586424164    4.18044324362489
H         2.29708380218573    4.34963521680771    3.74933635421821
C         3.52168325822748    6.11443625804746    3.42306522613536
H         3.25649301099415    6.22606461014190    2.38187617980261
C         4.39963368039541    7.00228610261887    4.02785934635511
H         4.83535606773639    7.81838138087447    3.47266735998689
C         4.70564082985269    6.82372773536433    5.36939993285348
H         5.38166856190533    7.49361769098716    5.88570790206324
C         4.04777077774195    2.74203176867461    7.25700925873507
C         5.27252656144228    3.31974176026733    7.57029749615313
H         5.43272386796336    4.37059997566205    7.37807932526938
C         6.27220365258175    2.53266320100579    8.11258507331545
H         7.22920162336573    2.97196740903127    8.35345564948255
C         6.05297020000993    1.18332650008880    8.34251629899783
H         6.84182768812316    0.57493415346848    8.75984142614134
C         4.83006842300589    0.61035114222095    8.03162601619215
H         4.66543861577828   -0.44248575657430    8.20521131806370
C         3.82486381295208    1.38794340658544    7.48729662750769
H         2.86913420183865    0.95486568189158    7.21110525365388
C         2.03762245005591    4.66592950541629    8.00492140698867
H         1.81422093511906    3.95341296487170    8.80765197666969
H         2.82496913309742    5.34596081756683    8.34238904233672
C         0.77657501435950    5.41264131512023    7.58446987096130
H         1.02454360381596    6.24855630208457    6.92142588421909
H         0.22861869335029    5.81132726047067    8.44137569986385
C        -1.01500347516735    3.18345333581999    7.88643367775974
C        -0.73195830912195    1.82001652744441    7.82555453436405
H        -0.12654811587366    1.42015461577293    6.99677787185297
C        -1.23663927463819    0.96877223468350    8.79300494728445
H        -1.02039025618582   -0.08810674795492    8.74713727527650
C        -2.02516004528644    1.47157459475632    9.81558875059984
H        -2.42048074627942    0.80544218763852   10.56798782356521
C        -2.31635802998482    2.82592247830020    9.87178948772935
H        -2.93923812015847    3.21194789428157   10.66539884351265
C        -1.81456733484366    3.68351317085857    8.91029104187722
H        -2.04425556443726    4.74012056010582    8.94248701199411
C        -1.72749899655256    5.33239053638015    6.18535997255873
C        -2.72246235832019    4.87499348523077    5.32781037926239
H        -2.63084262010857    3.89415537654735    4.88085455262726
C        -3.78084352274976    5.72627613440853    5.05983151605535
H        -4.57674311779090    5.41929690289949    4.39738142828068
C        -3.79840260747260    6.98062491148684    5.65389456354818
H        -4.60556526082755    7.67261530388930    5.46977586255360
C        -2.74842027442300    7.33473286432318    6.48832722002690
H        -2.71522730624525    8.30361921481422    6.97055402442943

