62
CSD_code = MAXDOH | q = 1 | S = 0 | Stoichiometry = C27H24MnN4O5S(1+) | MND = 6
Mn       -0.13329377166899    5.28978632160372    4.37087770235762
S         2.37589014406692    6.71681545704473    3.14963475872732
O         1.80572022426151    6.34234407256241    1.89161422589577
O         2.97998217713648    5.70652926367568    3.96244220168388
O         1.19105867222008    3.54440137336976    2.41217735246254
O         1.76665058330986    4.04552444417580    6.22917055418033
O        -2.00592563446568    3.10519975642405    4.94602514270903
N        -1.23529422560621    6.18598815715034    2.87057651363591
N         0.96443106656307    7.18119803273642    4.08696357757923
N        -0.84177459883176    6.55490126068771    5.86949312327098
N         4.69118760196607   12.59618257784301    1.56086571977936
C        -2.13546624550909    5.53812826646073    2.12111573809207
H        -2.47951440761155    4.58239467367560    2.49470220670861
C        -2.62180717863470    6.03160803691039    0.92520195362958
H        -3.34367601761852    5.46116827902275    0.36420920204699
C        -2.15431780499485    7.25199292281399    0.46174155301749
H        -2.49449183589892    7.65867143814970   -0.47745740587058
C        -1.23698797374416    7.93652814338017    1.23831276615162
H        -0.84674216279254    8.89280440270284    0.92688088052388
C        -0.80603435450954    7.37559707295596    2.43281426868324
C         0.14136551079253    8.12224733233396    3.33311640317027
H        -0.45773563787170    8.72715861350223    4.02845654285005
H         0.76619663300505    8.80902462838923    2.74795886541576
C         1.26376523570067    7.65277333413789    5.42969377033925
H         2.05603978168770    7.01415274266715    5.84014481403044
H         1.62266209378295    8.69305926951206    5.43290571489041
C         0.01251482715065    7.51197534608413    6.26416425558986
C        -0.23615325460475    8.33121955641160    7.35464208405925
H         0.48491434452405    9.08291078254040    7.63537510875059
C        -1.40839390050890    8.16209165447297    8.07361261918898
H        -1.62051651232726    8.77939740297982    8.93202707129349
C        -2.30163661699929    7.18913200225870    7.65310622249544
H        -3.23303951383243    7.02712126982396    8.17008508208047
C        -1.98009674284590    6.41221507870221    6.55379623555388
H        -2.65947997300306    5.64391441617050    6.20913002745120
C         3.40520686033682    8.17489547809335    3.11008064475164
C         4.31322033340306    8.24041270732322    4.13521772667926
H         4.37949047722926    7.42012578430893    4.83152096429504
C         5.18174822459380    9.32856113651287    4.22256557845353
H         5.94127705443914    9.34630659441014    4.98701559011503
C         5.06843866895677   10.36151549100831    3.32494368080367
H         5.76708160430709   11.17956115688157    3.37926890747689
C         4.11369246248251   10.34865337279063    2.29333502476089
C         4.00493483915368   11.42608696029056    1.34898292625892
C         3.25800165384376   11.21536111057465    0.19737879643576
H         3.20141171984480   11.98052255247565   -0.55845746838490
C         2.53816749503133   10.04072229768291    0.00896185232306
H         1.96367040874405    9.92054445402536   -0.89711569807330
C         2.51519332792233    9.05146127031109    0.96123969378233
H         1.95200343870386    8.14910665461148    0.79554881584882
C         3.30594902762288    9.17905410911063    2.11616898968748
C         4.97177582828214   13.47113814583938    0.44602657747683
H         5.28404515885221   12.88487047805176   -0.41547774871525
H         5.79406767851297   14.12719979303561    0.73073924411476
H         4.11475151823879   14.09663767540551    0.16970911502148
C         4.59317783102916   13.30496676063492    2.82003586967641
H         4.08917237020192   12.70041151812480    3.56970443318163
H         4.01635871547748   14.22599091930946    2.68032247082555
H         5.58463445034478   13.58228132970331    3.18569839779971
C         0.67451185156150    4.26315177641530    3.12344541634974
C         1.02476062978693    4.55788795389188    5.53187736373446
C        -1.28794416118531    3.97231513584608    4.71508598289533

