107
CSD_code = MAXGAU | q = 1 | S = 0 | Stoichiometry = C45H55NNiP3S2(1+) | MND = 5
Ni        9.07238808975665   10.28169040800359   14.71446652378537
S        10.08757890617179   10.46407974425791   12.73636672640818
S         9.77562867890024    8.10754579586241   14.29665227304923
P         9.68843172636798   12.25602962467052   15.49006994198959
P         8.19077340253118    9.91329236625213   16.64184167410034
P         6.86806567058283   10.30464403873119   13.79708552826099
N        10.45449299545004    8.03614831200935   11.70991214836809
C        10.14699703323958    8.76257278685026   12.77313910353609
C        10.65123447693500    6.60517629288641   11.80178386026514
H        10.20288302783826    6.14079360143595   10.92037923148991
H        10.13181191115592    6.24183718623581   12.69228437919915
C        12.13838512575493    6.24698386833299   11.89308710881483
H        12.22152404411464    5.15977000619274   11.92406255714252
H        12.65589716977778    6.59515984977620   10.99647787525106
C        12.80747250737882    6.84720784874235   13.12742128900092
H        12.27606757069868    6.51683941576458   14.02308561193582
H        12.74177964159423    7.93765581888698   13.08436828314713
C        14.27691722403146    6.44854605045272   13.23525382358947
H        14.35267111747969    5.36212699081282   13.30964321319149
H        14.80319344261383    6.75668977367106   12.32934500743856
C        14.94015558715271    7.08890195280580   14.44825179681000
H        15.98381935929839    6.79309484911865   14.51338952434420
H        14.43829655114568    6.78015118094487   15.36309953667144
H        14.89549812219337    8.17418828696602   14.37752400885955
C        10.56530476243292    8.66248123099031   10.40830283930074
H        11.18532605919853    8.02862008328299    9.77349620103131
H        11.05927320777925    9.63266739029129   10.52048947317962
C         9.18183581447552    8.85629188939448    9.78184831557752
H         8.56992990020645    9.46421013039213   10.45286346612866
H         8.69121872356746    7.88526500241837    9.68189644722383
C         9.26272358997381    9.53335785967019    8.41809439962895
H         9.76520608663168   10.49739952288738    8.52208580158814
H         9.85856689577488    8.91909492840816    7.73965202188300
C         7.87466580980798    9.74887523716994    7.81945029234376
H         7.28271140087796   10.36390586894983    8.50146552542760
H         7.37033470463708    8.78461202106951    7.72557478785289
C         7.94613650865590   10.42106255826774    6.45455989359372
H         6.94905444732554   10.56070176614640    6.04531425106959
H         8.51979642384517    9.81335468883554    5.75891292042244
H         8.42421274922978   11.39460066140700    6.53266597044823
C         8.78036561442309   12.55706292368871   17.07647633181238
H         9.29790846567220   13.32297318030914   17.66043853061883
H         7.78056335827774   12.92221875875861   16.82572978702451
C         8.68896842503122   11.23593978303959   17.83144898972178
H         7.97099028247196   11.27758205237024   18.65563346260931
H         9.66761273204891   10.96483755638485   18.23896388164679
C         6.36802512105038   10.17984477276261   16.49704426492883
H         5.86530016938224    9.74956146341407   17.36800246843394
H         6.21166035596905   11.26371657726438   16.51124051128814
C         5.84412502340073    9.61114392193493   15.18035936045704
H         4.78182273414993    9.82142967971458   15.03459322145951
H         5.98367061372094    8.52555385112913   15.14776937917323
C         9.68506079679555   13.84021705690277   14.61661462845208
C        10.57459823947500   13.95854282281340   13.54938286472141
H        11.22214860068843   13.12597045508667   13.30648131984137
C        10.62662137655236   15.12683833691460   12.81517721650069
H        11.32032799005683   15.21681516759422   11.99303322346099
C         9.78698496579774   16.18261765005855   13.13628728429246
H         9.82796763661727   17.09766558571653   12.56528104115321
C         8.89241159907800   16.06277560122227   14.18678226928813
H         8.23629488419596   16.88358563372340   14.43429088622293
C         8.83094657860672   14.89296930902058   14.92364462226423
H         8.12268168894346   14.81254991771446   15.73405063164817
C        11.40475672352373   12.09119682540976   16.06381213599631
C        11.98362223632218   10.82699131715473   16.02963823375346
H        11.40705344040165    9.98950966735324   15.63256956315046
C        13.27645181094379   10.64098872644305   16.48300526483035
H        13.72567574244368    9.65925912681077   16.45525576327794
C        13.99359853431987   11.72339414745728   16.96668598537478
H        15.00476858692313   11.58515097981978   17.31784561010914
C        13.42113654561702   12.98670911447999   16.99538620960181
H        13.98823805249753   13.82608090089020   17.36831547633623
C        12.12784108850443   13.17786221145264   16.54495994466184
H        11.68111257331900   14.16255370750597   16.55549105114275
C         8.44081879844236    8.36468603212736   17.54377814323182
C         7.43474176834743    7.43151672780505   17.76788752159067
H         6.42487619275567    7.61434762028376   17.43232000708441
C         7.72718135664251    6.25224651744008   18.43079865422101
H         6.94244138982059    5.53323814275739   18.61151107364593
C         9.01860524968120    5.98990387596324   18.85602724394499
H         9.23935428710405    5.06727798742619   19.37028101113351
C        10.03013201843254    6.90544620369884   18.60893213641666
H        11.04012188280442    6.69502442192773   18.92646919140298
C         9.74584360034309    8.08352417961224   17.94735576729865
H        10.53602076580580    8.79114063700688   17.73094538482891
C         6.22929608298902    9.38142808016988   12.36899552626596
C         6.56094730422527    8.02928352568923   12.30085865582937
H         7.14378174842623    7.58164024742904   13.09671463006722
C         6.15483608107875    7.26792167901654   11.22228530470998
H         6.40606900617714    6.21835325524052   11.17726553966041
C         5.42832180073253    7.85477916972189   10.19791483867530
H         5.11134350597832    7.26198026348114    9.35345058458292
C         5.11193728397385    9.20201626380307   10.25450807953530
H         4.54922838139845    9.65755339642668    9.45370591837966
C         5.51323844521475    9.97006737846068   11.33355714494791
H         5.26964574976523   11.02196141309544   11.37373237138759
C         6.25664181124746   11.99840685608579   13.53623560452708
C         7.06676771479192   12.79263918028009   12.72452105173413
H         7.97178944144642   12.36815770856662   12.30658401326939
C         6.72191249583713   14.10278427742899   12.45683240117063
H         7.34955876365817   14.70661619055269   11.81914499475917
C         5.57395661884177   14.63962750196912   13.01782535061773
H         5.30319260344452   15.66503426014209   12.81778830776319
C         4.77253205438533   13.86030642715223   13.83567946109178
H         3.87756294876460   14.27937259475294   14.27130547343007
C         5.10646424098480   12.54181720998562   14.09528437156445
H         4.46126555245656   11.94776510441499   14.72554919399142

