81
CSD_code = MAXNEG | q = 0 | S = 0 | Stoichiometry = C39H35IrN2O4 | MND = 6
Ir        2.02226757809093    3.10851450926870    3.21449934027719
N         2.82713932777472    2.12999468703221    1.61608330694672
N         1.21352374252461    4.08809083978167    4.81060860259045
O         4.69187203811332    3.42006248920044   -1.20803825731578
O         0.45937494362132    2.89645933909990    8.14674634577364
O         0.07050048354194    2.00622549853817    3.51509395761782
O         0.85868356502985    3.97273305185972    1.47514496681324
C         3.60576170301856    4.27221950323136    2.88025045318526
C         4.16098808490239    4.07893593367846    1.57623158649140
C         5.15322120765250    4.91542586873960    1.11264328218952
H         5.57872930729120    4.78432356647527    0.13243000786894
C         5.64709332662131    5.96410340773702    1.90875351737946
C         6.66128727735973    6.83289612177654    1.45187854071303
H         7.06227160244901    6.68430751479830    0.45881335706333
C         7.12847994353490    7.84209000774400    2.24586199452057
H         7.90452367967732    8.50449014038953    1.88987143730198
C         6.60344222991416    8.02707950860849    3.53524056986692
H         6.98449003160992    8.82976812585440    4.15062292951522
C         5.62150684637890    7.20138684802571    4.00681725828348
H         5.21540910338468    7.33987384796101    4.99906836641185
C         5.11581377296677    6.15230844023235    3.21134466604015
C         4.09385704106633    5.28938092993025    3.65953539313957
H         3.70086685065418    5.45088223902283    4.65474870030042
C         3.63427279826768    2.91704801228231    0.86558825144722
C         3.93607177858690    2.56535404828790   -0.46931383867796
C         3.43795976640311    1.36964266510292   -0.97027462475903
H         3.62966185723410    1.06340110824617   -1.98593378587240
C         2.70546902779702    0.54469653923667   -0.13742942438538
H         2.34865304981084   -0.40859550912615   -0.49498533187307
C         2.41265784809927    0.94578635132909    1.15702985514501
C         4.95104693436119    3.10716661799463   -2.55604146821384
H         5.52990671812624    2.18282937785512   -2.65261602043664
H         5.54038891281836    3.93943634108922   -2.93813837218420
H         4.02757932326161    3.02474158456501   -3.13763982165303
C         1.64885569881906    0.01980315185581    2.04829980048931
H         1.75609855830518    0.30868474705425    3.08956959334217
H         2.00685047397686   -0.99949972857219    1.91347085221366
H         0.58967774405950    0.04304411510057    1.79585003922844
C         2.93399633417874    2.13373418578669    4.69495701155096
C         3.96018049698778    1.22820013437028    4.61051536383962
H         4.47440837966753    1.07240242829955    3.67124581385528
C         4.38985088202389    0.47680881091698    5.72433391990257
C         5.44376364467950   -0.45696469914803    5.64434253451992
H         5.94345387875749   -0.59257760836217    4.69535790801428
C         5.82655317753758   -1.17654875116963    6.74160487417743
H         6.63438399828313   -1.89118797139001    6.67166299252762
C         5.17472270802534   -0.99565263553882    7.97238049580230
H         5.49123933180990   -1.57298523658041    8.82926386816274
C         4.15122870495348   -0.09705477634955    8.08250047926548
H         3.64611491152280    0.04762540637481    9.02747188770000
C         3.73129158732735    0.66052157416312    6.96809733594109
C         2.68431469924202    1.59500468257335    7.05712238838085
H         2.20630197054226    1.72562269223243    8.01288431445319
C         2.28834519832776    2.32451092453159    5.95696715815859
C         1.27000488671919    3.37100296050035    5.95818109966612
C         0.41975587946338    3.68701396764238    7.04177016660416
C        -0.42544811400482    4.78284677400028    6.92565704734881
H        -1.10025914686096    5.05784318660476    7.72007349721171
C        -0.37700615155853    5.55074573774699    5.77732032193617
H        -0.99373495422498    6.43133227902169    5.68716168671275
C         0.45329114439993    5.18378449018398    4.72941425155870
C        -0.42926099240460    3.16302257293150    9.20578703560244
H        -0.24437886131675    4.14574526093903    9.65169725895349
H        -0.23375262846464    2.39116010704328    9.94875848283334
H        -1.47343082399383    3.09582859322703    8.88480189000214
C         0.50998242313579    6.04893883166084    3.51156627179117
H         1.40141626950576    5.83823509066985    2.92828160937792
H         0.50411160622152    7.09764932357985    3.80373163512009
H        -0.35957992108304    5.86784191674504    2.88123198434311
C        -2.18428523415439    1.30141284123760    3.38598115396925
H        -2.53706139489471    0.61431181479889    2.61927031108536
H        -3.00169734479928    1.97199844445108    3.64447353309493
H        -1.88844033516162    0.73758687361719    4.26756128239865
C        -0.99719064946310    2.10340129102821    2.87064871907178
C        -1.22283117220007    2.85455541874022    1.71272586280556
H        -2.20063707551912    2.77629075198054    1.25949465969869
C        -0.29834179664630    3.69768718340551    1.08769359800739
C        -0.76914763903355    4.36639476691715   -0.19647729131862
H         0.01520043137213    5.01540171088757   -0.57886049949345
H        -1.66534589976452    4.95470744511493   -0.00901014969845
H        -1.00773658622069    3.61090936333028   -0.94282979171783

