75
CSD_code = MAXPAD | q = 0 | S = 0 | Stoichiometry = C34H35ClMoO2P2 | MND = 8
Mo        7.14716746654489    8.40201278146544    7.47661822162374
Cl        5.84723557432241    7.16738942202433    9.24375241658950
P         5.02975288401195    8.15982207016627    6.27493844753799
P         5.75921782398813    9.92402825169878    8.69664094612115
O         8.73978068739304   10.47147875014155    5.85450287761863
O         9.52894706914964    8.87692349608970    9.36751653182072
C         8.11643056482409    7.58752165960550    5.54629848686533
C         7.83993624939258    6.53833167302212    6.47129637986326
C         8.64326106908341    6.51396607860033    7.61432544983910
C         8.48282708045130    5.45784900958759    8.66265282259963
C         8.08630773636911    9.70971231543559    6.42588030782573
C         8.62986568925357    8.68343753795925    8.68030208846344
C         3.74762855648118    9.35125719017372    6.94453621664047
C         3.94871679818255    9.57594312490968    8.44878298276785
C         2.30731704532730    9.01608623739141    6.56464406910239
C         3.06414868697184   10.69221656464381    8.99972239663085
C         4.31452662932769    6.48994288291941    6.34771956880636
C         3.54288592992941    6.03077394234471    7.41011548183445
C         3.15639322341078    4.70326433337840    7.46892686942831
C         3.54700010006130    3.81469192237109    6.48245958962339
C         4.33611007329884    4.25648162554916    5.43245722570443
C         4.72294884366620    5.58121413174128    5.36927003334257
C         4.81139393335339    8.55640404334901    4.50307955076012
C         3.79633346929357    8.00799260516044    3.72195319336095
C         3.63852963556200    8.40242410819664    2.40569933162413
C         4.48679035624202    9.34662519226393    1.85086636702198
C         5.50263018038132    9.89183461164812    2.61742777460642
C         5.66215215125007    9.49769156009210    3.93361209648726
C         5.80019626292991   11.70529359148548    8.27934186170920
C         5.98554994269556   12.06061257632569    6.94782903916526
C         5.98560148191679   13.38818794403894    6.56109089328219
C         5.80483945408959   14.38258089826352    7.50757622748191
C         5.61964306250870   14.04067679100674    8.83709438774456
C         5.61253102471430   12.71262634062984    9.22305296224249
C         6.05572005404253    9.98920562556359   10.48056580843371
C         7.25744648076254   10.58584912205513   10.85931984065120
C         7.62600151556258   10.62615160074525   12.18960014772122
C         6.79695778350368   10.07043152510860   13.15215104505900
C         5.60436584727436    9.47449918044025   12.77927314649182
C         5.23099088683291    9.42767413440529   11.44686346848721
H         9.16792397575367    7.81261327157760    5.37186280133825
H         7.54002808837683    7.58779019068116    4.62276214126279
H         7.09221413296536    5.77038065809891    6.28857290972798
H         9.66646872891977    6.87511426289368    7.50431873613514
H         8.72318319910790    5.85232738336943    9.64965860090653
H         7.46563509942371    5.07001799657368    8.68286553176793
H         9.16974182879444    4.63316837239615    8.45906306517775
H         4.01801864591343   10.29443639935933    6.43709077481029
H         3.74130181225574    8.64755874565208    8.99264470545686
H         1.95773565547063    8.11630541523440    7.06409346179148
H         1.64924786860425    9.83916090088855    6.83582386441251
H         2.22575884472212    8.86960949988782    5.48959295667269
H         3.39744038231529   10.98185783647305    9.99530482691224
H         3.10036344484436   11.57164814301792    8.35835434008855
H         2.03033675613608   10.35948788221640    9.07545875545196
H         3.25952363795261    6.69721512725796    8.20905254110006
H         2.55592092614821    4.35966382346703    8.29852610885129
H         3.24732279830127    2.77844056051117    6.53521299400495
H         4.65702000292346    3.56583209457357    4.66569381658860
H         5.34355398406853    5.92146141499330    4.54812166516889
H         3.13882361540090    7.25546776730422    4.13457277848165
H         2.84838625669060    7.96878116360627    1.80985247268089
H         4.35982086826866    9.65018182029002    0.82237823436314
H         6.17520193974291   10.62080848947562    2.19009888462210
H         6.46892620471033    9.91055560341793    4.52417794836205
H         6.14118502645159   11.28132132225085    6.21441944156060
H         6.13358596708900   13.64652599251158    5.52282334361101
H         5.81211408980319   15.42115526117948    7.21167295615308
H         5.47974765675130   14.81336025805162    9.57912100708926
H         5.46863762036410   12.46079479134070   10.26435015884562
H         7.89446239373599   11.01480994083343   10.09365954866100
H         8.56138491760018   11.08338547236559   12.47653831146409
H         7.08548544525684   10.09553415314533   14.19273342345307
H         4.96328563735703    9.03357423573889   13.52885128352836
H         4.31273324336997    8.93384729736707   11.16541905650707

