55
CSD_code = MAXQIL | q = 1 | S = 0 | Stoichiometry = C29H22AuNPS(1+) | MND = 4
Au        0.53741897991774    4.06383697837715   17.60372503649527
S        -0.63726740800198    4.29104141109217   15.55270358132382
P        -1.32364663547126    4.94105875598610   18.54010369869525
N         2.27843767267142    3.34046113931328   16.75160946214253
C        -1.85562986252424    5.48270120450407   15.91060847792301
C        -2.13995281314226    5.85535529215328   17.22871910439688
C        -3.06382445516762    6.86441412671790   17.50095086981283
H        -3.23864254586944    7.16768240489615   18.52514166700460
C        -3.73008237590629    7.47727866143131   16.45938055568041
H        -4.44320019985116    8.26056947149694   16.66235206470309
C        -3.47794833674650    7.08243687952098   15.15020917787321
H        -4.00373501875455    7.55835016656043   14.33699846286660
C        -2.54775641546491    6.10130661377500   14.87249173054287
H        -2.33582219444021    5.80594863964491   13.85698043443287
C        -1.10964224829092    6.13392402317558   19.87036901922466
C        -1.73111322005417    5.99971957586183   21.10809403210014
H        -2.36590335236849    5.14701824295791   21.30947592170039
C        -1.53065130987260    6.97321707724700   22.07119431048198
H        -2.01304592596735    6.88091588373968   23.03222481123587
C        -0.71433286093448    8.06111557128464   21.80445189204367
H        -0.56270913467332    8.81524761998298   22.56107656750845
C        -0.09049412707580    8.18771899527784   20.57102608390587
H         0.54334626272531    9.03727359597308   20.36883213640650
C        -0.28350620450555    7.22405155716136   19.60102548110565
H         0.19201891381549    7.30392552958678   18.63069720662511
C        -2.44446707439414    3.64423996422541   19.09331826713298
C        -3.80417524378528    3.92504645874610   19.22089977006958
H        -4.17928959328061    4.90826346733591   18.97130706984490
C        -4.66353662803588    2.93399172686364   19.65671475626305
H        -5.71702248432309    3.14498186459725   19.75788901367833
C        -4.17442314782338    1.67152888480474   19.95805772077292
H        -4.85071580982209    0.90139860132328   20.29513654432382
C        -2.82404294531174    1.39174114475528   19.81901620182461
H        -2.44846874947722    0.40567663344518   20.04529886511880
C        -1.95327298181895    2.37439445124746   19.38397731316305
H        -0.89764414354462    2.16383576285705   19.26520601661699
C         2.48080140111442    3.18173456998347   15.44708372862097
H         1.64154264450424    3.39771244402193   14.80170302017941
C         3.69379201358000    2.76455807912541   14.93698860452839
H         3.81815122586432    2.64434168960519   13.87377683821513
C         4.73337455579390    2.51399507592072   15.82340140983425
H         5.69846779350683    2.19525001303354   15.46097155491420
C         4.51654677346163    2.67732119251599   17.17855495733703
H         5.31017924122332    2.48875815098419   17.88229224367657
C         3.26640070771172    3.09215811841958   17.63490042959820
C         2.90024022735955    3.27506459225615   19.03026184477859
C         1.60066865898417    3.73604021838086   19.29153188877283
C         1.17133234466384    3.85801964455859   20.59532425199589
H         0.16244510970695    4.18243192722161   20.81030292870593
C         2.02169013386163    3.55975115962160   21.65232367255987
H         1.66676241553860    3.66074874337934   22.66629348778130
C         3.31318676441442    3.13202945121172   21.40003195311958
H         3.97739576040929    2.90336296585420   22.21875945472933
C         3.75069404771621    2.98333116448091   20.09793002039909
H         4.75277179815216    2.63042242151340   19.91260438520397

