42
CSD_code = MAXQEH | q = 1 | S = 0 | Stoichiometry = C19H18AuN2O2(1+) | MND = 4
Au        7.95258076220909    9.05510033784036    8.86251633534474
O         9.79154902453637    8.63527026912680    9.84833864957063
O         8.14050765482353    8.21296402229340   11.19866244108083
N         7.82419281688143    7.31746787822692    7.93704897861990
N         8.04790852654972   10.84239985169472    9.75538611014264
C         6.66165435930885    7.05482016432975    7.29046431415707
C         6.39414086297616    5.74365370144727    6.85779409976367
C         7.39281549488219    4.78746180129352    7.02483516000979
H         7.21268490449091    3.77599433730363    6.69268878548824
C         8.60409757945696    5.11229153759227    7.60959889351302
H         9.38958033521589    4.38397959067993    7.72270330841534
C         8.77100379795221    6.39583612471720    8.08421198243413
H         9.66993373327124    6.70802257669398    8.59327074537151
C         5.09487267206762    5.30381873569440    6.26724606171596
H         5.02822594758869    4.21899417596881    6.29903574039714
H         5.02089571928036    5.60512134434388    5.22275234001332
H         4.25281879936457    5.71626114218548    6.81759861922992
C         8.98711706647468   11.72105700131112    9.39677795705139
H         9.55381731809588   11.48947485173968    8.50812689174140
C         9.23445339930866   12.86970146602050   10.12380602139897
H        10.00407371764992   13.55104362354586    9.79869882791942
C         8.48860032604408   13.11660371947768   11.26742642324597
H         8.66538291210892   14.00038904165172   11.86077558825735
C         7.51398930496063   12.19979444997114   11.63202878356089
H         6.90970804894136   12.34470265980835   12.51292399320474
C         7.32320183514685   11.07433231272304   10.85261144257205
H         6.58947746477807   10.32777681427009   11.11410402087552
C         9.35940819001881    8.24966193633304   10.99499414295047
C        10.36891588523324    7.86205689118838   12.03213086100869
H         9.86393308299610    7.58434556732570   12.95200667364026
H        11.04502984521113    8.69572107583917   12.20870279877007
H        10.96046801262927    7.02588680482333   11.66526197768496
C         5.82689997135489    8.24355462766788    7.15247862720450
C         6.27269857289814    9.36860914948655    7.86935877926844
C         5.56566866028816   10.55023271924565    7.82756408717510
H         5.89922645270863   11.41248419336985    8.38472133115494
C         4.41637121823811   10.65310215987777    7.05275141363241
H         3.87120684151284   11.58355246337157    7.02680486668318
C         3.99621543488904    9.56978153259919    6.30502797976255
H         3.12083251958421    9.65189631793660    5.67984146640095
C         4.69236967804174    8.37541431539198    6.34903180433911
H         4.35437125008769    7.56356671356986    5.73279067534337

