66
CSD_code = MAXQUX | q = 0 | S = 0 | Stoichiometry = C34H24AuClN2O4 | MND = 4
Au        8.96863770674266    7.83225256774080    7.69746273546169
Cl        6.81254391798016    7.68730542873791    8.49116563910194
O        11.65708787176778    1.76176969227636    5.97599973529472
O         9.81402528168739    0.94267399294519    6.94591109147075
N         9.18704219447594    5.95541485654639    6.69213343945311
C        10.47825833593628    5.63658793974888    6.68668582489488
C        10.88942194422589    4.29615435633001    6.56597254444103
H        11.93642978610538    4.04999232473415    6.61457442034820
C         9.96080592280453    3.29073098696310    6.46996102609273
C         7.55459618417824    2.68187362570059    6.20423821076517
H         7.81007018975993    1.63590479063517    6.15399857778891
C         6.25141838225320    3.08689209997701    6.09851892978652
H         5.46888535721722    2.35536053103177    5.96447128319236
C         5.92539638881137    4.44940912303862    6.14513880176863
H         4.89688084684097    4.75660947504824    6.03490550684860
C         6.89870883457709    5.39395432205268    6.32578005942456
H         6.65217636280423    6.44127477685953    6.36837898454111
C         8.58340013146793    3.62507756888200    6.38721104319242
C         8.24362184402314    5.00843973388142    6.48003439095892
C        10.43031844114652    1.87549465394012    6.49754031884011
C        12.21590602117430    0.45516855256318    5.98450623929072
H        12.32770901087295    0.09820940239574    7.01026689330458
H        13.18462418210552    0.53606598225179    5.49879057874405
H        11.57010554328662   -0.23741071436271    5.44122330871887
O        14.83889800298865    8.07777906663320   10.33349229718733
O        14.95217186628764    5.95834374810036   11.03571511335711
N        10.11068672676163    7.02548296439480    9.80512500246388
C        10.78675608655788    8.12344917067174   10.06631290680402
C        12.15405093144662    8.08966685075340   10.40410884054528
H        12.67913761268633    9.00938901639214   10.60494225710241
C        12.82914838158774    6.89102694750439   10.39251238169622
C        12.66634862804762    4.39736349994154   10.11445733477679
H        13.72252279376109    4.28104095278708   10.29586724868198
C        11.87475702171100    3.30219164431258    9.89199782348764
H        12.31433422317545    2.31547073278935    9.88539695925999
C        10.49284761164328    3.43717797069391    9.68784709548441
H         9.88796774240786    2.55592517723988    9.53135854445233
C         9.92047429716630    4.67796346236821    9.67822795465955
H         8.86254727971579    4.82033153277796    9.51673323859351
C        12.10676106557009    5.68934212314085   10.14177510024575
C        10.71243426426944    5.82599508478118    9.88659714340440
C        14.29771767520830    6.88694862796742   10.63156634315205
C        16.23949889081700    8.18835481568934   10.53642905982164
H        16.48830673050271    8.00019955174118   11.58302572703997
H        16.50774522683835    9.20325363504507   10.25517924297530
H        16.77137144559296    7.46414203230006    9.91587687978683
C        11.41511468524406    6.74458868348871    6.80698432180637
C        10.86791948983024    7.99887173363105    7.12069638822300
C        11.71221227797910    9.09602670021782    7.16304228318023
H        11.31235559160364   10.07433816427178    7.38654455460375
C        13.07195246990811    8.96110658162764    6.92931518673590
H        13.71066631683487    9.83112213582456    6.96670505543180
C        13.61109383800030    7.71446981194978    6.65827191149864
H        14.67291351753900    7.60589061376139    6.49357062062725
C        12.78676128344143    6.61020199315989    6.58578132571615
H        13.21260678629794    5.64668252425384    6.35023177801351
C        10.06807123776355    9.38473968496343    9.85781213839503
C         9.17848871517669    9.47353871414606    8.78143993569150
C         8.49913592515771   10.65605689050229    8.55865264529810
H         7.80152788614734   10.73135965705042    7.73862879950608
C         8.70080330936649   11.74853890803798    9.38989885642062
H         8.16211689768015   12.66580603343457    9.20379131513834
C         9.58236288582091   11.66262715880144   10.45356288813232
H         9.73120946264441   12.51111633870531   11.10497021759180
C        10.26726448782189   10.48543914247874   10.68675102077656
H        10.93756774879347   10.40323385166037   11.53023467851090

