49
CSD_code = MAXSEJ | q = 1 | S = 0 | Stoichiometry = C18H22MnN2O6(1+) | MND = 6
Mn        1.37228920248131    7.52628176433567    9.40542025499307
O         1.48912461261307    8.44013503274048   10.92666902369000
O         0.60321365758274    5.98646222646405    9.85271810574018
O         0.78250963968946    9.02086748152018   13.39693778283448
O        -0.06500886076043    4.08347704442716   11.54666395117533
O         3.39846420225912    6.78629241185198   10.00265937249978
O        -0.74227445963672    8.18188115945766    9.07588833255587
N         1.97665430815249    9.14513068020806    8.48084806215858
N         1.66704290869090    6.76804610959153    7.62338445884787
C         1.19842239561136    9.67673567969821   11.19164240568340
C         0.85122162803974   10.05682909932292   12.52498486983757
C         0.59365516610739   11.38063218161967   12.81539304282047
C         0.70040814281744   12.36266293441445   11.82712004031979
C         1.06402593312590   12.03163797682385   10.54806541737034
C         1.30871217121411   10.69112345371614   10.19970316025400
C         1.77372507647334   10.35240904306830    8.89237603814958
C         0.44213125742956    9.29074708444210   14.73879403656775
C         2.56879377623684    8.93664941689486    7.17624936989425
C         1.85526739003919    7.72910144000369    6.55750284031615
C         1.82738734584381    5.51129951480026    7.37251435361083
C         1.55762533870707    4.46302018135792    8.30442105605280
C         1.81419722093868    3.12154726431607    7.96848215140850
C         1.47593938333149    2.11169412642328    8.83079401171864
C         0.84322210755152    2.39183277029831   10.04478594941121
C         0.54652914163903    3.69081602258163   10.40211066480427
C         0.92106793529480    4.76781792687289    9.54027136913760
C        -0.47161927859251    3.09500054659812   12.46694918766846
H         0.31688370351587   11.67606033679259   13.81422429905140
H         0.50275207329574   13.38966616799529   12.08830147378661
H         1.16432429274920   12.79391538903789    9.79152897464469
H         2.01370674430065   11.18968398316437    8.23629462264344
H        -0.55904454093072    9.72428479097427   14.81824138431552
H         1.16891124312094    9.95981987650862   15.20819100385197
H         0.45904631147194    8.32709118928933   15.24415715249736
H         2.48105023970198    9.82124444232299    6.53670946714726
H         3.62961292224137    8.69660611936973    7.31466294889009
H         0.86775402222652    8.03992353155178    6.19660656323055
H         2.42855912244861    7.31316093368117    5.72228649732441
H         2.13922365910516    5.19964028033378    6.37516013162589
H         2.28463491421353    2.90090520673527    7.02325143119384
H         1.68488708140670    1.08535862474105    8.57584436116280
H         0.57978576552565    1.57354007217802   10.69480460967788
H        -1.19654251865973    2.40830477574752   12.02080331135427
H         0.38252433196335    2.52821838385963   12.84879693986393
H        -0.94198812120414    3.63469037633908   13.28656654781095
H         3.37052331185844    5.84014123296502   10.19732589157062
H         3.65987646155877    7.22671424118969   10.82437174124006
H        -1.32908683885677    7.42727900853053    9.22820659105266
H        -0.99012152393251    8.85422046284447    9.72371474654114

