35
CSD_code = MAXTIO | q = 0 | S = 0 | Stoichiometry = C16H12FeO5S | MND = 8
Fe        3.13298461891620    7.23630964476918    9.59854618286954
S         0.51477382042190    5.11294091450107    6.61343936758450
O         1.38017195683993    4.20642056223452    5.92029314175771
O         0.22643527203765    4.55488354790704    8.11519560376704
O        -0.74312074123006    5.41523250653335    6.01058235183786
O         0.88099946059244    7.80049064665621   11.30292674146154
O         2.34322005956185    9.82250330915818    8.58586096461591
C         1.78876717364792    7.54858226605590   10.65504531176932
C         2.69153560062866    8.78576241086912    8.91586264669062
C         1.24599273073183    5.00650169409669    8.97366275059998
H         2.01894058472211    4.23114461715866    9.05638099383466
H         0.79759863130235    5.16302506580506    9.95827786210387
C         1.86236860291377    6.28282896811507    8.42957741023614
C         1.50010815246185    6.51630566510268    7.17928782001263
C         4.61290894258569    6.64632633158645   11.15542958728945
H         4.50585033018995    6.75996280122164   12.22143311704433
C         5.23771886420567    7.56428331992800   10.28254240965802
H         5.71234832248718    8.48775295530817   10.57054533420756
C         5.31442601598642    6.96079751266311    8.99814397023624
H         5.85147469916974    7.35958979963165    8.15380566727904
C         4.72548457003568    5.68608243025550    9.07611781354200
H         4.69749814484309    4.95325878742771    8.28677599306531
C         4.26160392531844    5.49850366319687   10.40455942288227
H         3.88614134866680    4.57599150328242   10.81442015665307
C         1.82210177256761    7.53536585876718    6.20058820362855
C         0.84498932092995    7.97357123100233    5.30732648354859
H        -0.14347127495200    7.54572180516749    5.35857753934364
C         1.14760268055329    8.94282630576118    4.36863213624448
H         0.38405757674311    9.27969100355951    3.68397464978877
C         2.42247584356903    9.48153760426971    4.30181209760368
H         2.65385279851015   10.23915908940855    3.56818030771311
C         3.40287237353154    9.03690705111807    5.17332461915441
H         4.40200395832431    9.44336048072880    5.11564941139522
C         3.10804248802422    8.06777856078173    6.11329921874206
H         3.87074137515749    7.69830008597250    6.78102271183765

