94
CSD_code = MAXVIR | q = 1 | S = 0 | Stoichiometry = C40H48FeIN4(1+) | MND = 5
Fe        5.65057200965057    1.98111672764586    5.10512137602928
I         5.69559908690451    2.31770110672446    7.62695472196860
N         7.51648094033231    1.45296738259380    4.69383702005702
N         5.32025767934177    0.04628491382821    4.92140949944262
N         3.76942116502518    2.39123232362055    4.63599767340249
N         5.96500955719069    3.79810547636014    4.40691944864959
C         8.34799698437072    2.19608892569527    3.99705196109159
C         9.04466716396188    1.40630218585183    3.02119250472363
H         9.75383710237923    1.77066993980285    2.30572446612635
C         8.63235688261996    0.12555261280266    3.16277703625255
H         8.95737434311434   -0.73165594618216    2.60875407933381
C         7.70190083586638    0.10496471022486    4.27944623857814
C         7.62335575225550   -1.03067843069946    5.28597006830093
C         6.40115547845769   -0.73426109357105    4.42771898694704
C         5.84027281561812   -1.70324036009138    3.49988171228714
H         6.39999644434264   -2.42194375349216    2.93640717031012
C         4.49509505179897   -1.56089958839397    3.55134849667126
H         3.76740423626472   -2.14698104555631    3.02718988710384
C         4.21161197884525   -0.47146236775222    4.43813872134624
C         2.86029123848568    0.10649856773571    4.76591793128793
C         2.91637526100334    1.49535714068467    4.18993848074050
C         2.18090938505089    2.00433073995383    3.06681285382961
H         1.44780039520754    1.46838584608140    2.49855811428424
C         2.59216592024583    3.27509976365202    2.85149909980008
H         2.24329657464209    3.95810420246726    2.10372479815603
C         3.56255864094772    3.58383861313113    3.88883398096199
C         3.67160656308834    4.94375576581203    4.55804487426811
C         4.86343823475436    4.42651477042216    3.76427632450781
C         5.38621302803473    5.11477037986676    2.59489812666460
H         4.80316408360787    5.66278513821203    1.88277243172350
C         6.73302329246662    4.98445884997736    2.63386273731946
H         7.43876238960206    5.40869577352866    1.94842994525871
C         7.05317662101233    4.16513298070176    3.76521939603433
C         8.41787089079328    3.68724166331286    4.18547886133930
C         8.63071615461074    4.04654199766006    5.67255844631491
H         8.51811225746647    5.12693701061780    5.78087711065043
H         7.86524166836492    3.56336319553106    6.27388024509374
C        10.01503851095157    3.63142085051675    6.15188638530287
H        10.11716582916704    3.89300260081199    7.20516041298033
H        10.12409105022049    2.54789056195194    6.06318690226249
C        11.09172006228760    4.32680218601472    5.32769495133047
H        11.00662659076154    5.40775360264350    5.45485362976096
H        12.08206925695526    4.02683491129148    5.67120980694800
C        10.92514768854641    3.96556184374381    3.85640326544483
H        11.09687408051138    2.89442345327194    3.73736685353705
H        11.66886767640082    4.49046357856114    3.25463623465532
C         9.53053194237383    4.34054384448646    3.35407242334112
H         9.42852421687273    4.07043246697091    2.30081998981142
H         9.41709808316835    5.42376331087840    3.43477336886531
C         8.37165187166328   -2.31182456026202    4.98309755709276
H         8.42802560636759   -2.51576079442205    3.91466998372156
H         9.39275500223480   -2.20503172635211    5.35670077444765
C         7.69312280379441   -3.48376563528307    5.69983048739353
H         8.25367412834755   -4.39755444881173    5.50001150609981
H         6.68405859497845   -3.61270732500236    5.29982681940944
C         7.61732583720195   -3.23028006612004    7.20166667425138
H         8.62641038784200   -3.18961828103573    7.61589147718218
H         7.09170268257067   -4.05340010442105    7.68632051015849
C         6.89906209372934   -1.91565418636187    7.48243208349782
H         5.86375244079099   -1.97574222989586    7.13976052094068
H         6.88613237505675   -1.70981902639495    8.55203170449641
C         7.59750295862144   -0.76014747920925    6.76397423160761
H         7.09139798225611    0.17224232600725    6.97990785361776
H         8.62744805659178   -0.68076990259143    7.11894182549849
C         2.70117190283064    0.15126389025780    6.30166826832715
H         2.82257444318511   -0.86333626359396    6.68580275679260
H         3.48498036688062    0.77177588034608    6.72790234921790
C         1.33249471598258    0.68408632626203    6.70328944449427
H         1.26851658695612    0.70886726935858    7.79119038690172
H         1.21522797605983    1.70674560810902    6.33691952493168
C         0.23106011135609   -0.19850093412518    6.12885148365159
H        -0.74809933304500    0.18574481633697    6.41587810546807
H         0.32564658100599   -1.20846539404163    6.53244853164296
C         0.34420274522094   -0.23716427846330    4.60943818936797
H         0.16305820927515    0.76584562657249    4.21940563910557
H        -0.41743705128483   -0.89844993659801    4.19307992899731
C         1.72227996683048   -0.73708087693867    4.17479249286935
H         1.78606389294445   -0.75336589609393    3.08467222726623
H         1.84367052673378   -1.76163687001494    4.53296387506775
C         2.90636471508097    6.10365564729471    3.95649679817332
H         1.90034896155393    6.10424569255896    4.38260474813179
H         2.80945823842684    6.01950352420389    2.87490940473285
C         3.60542841334860    7.41938184297354    4.31392186549582
H         4.59837688696468    7.43318390502534    3.85709599746030
H         3.03357007251788    8.25118688501917    3.90137179248607
C         3.73787930777969    7.56986705454959    5.82565919375039
H         4.27759963948531    8.48860928409555    6.05662026957195
H         2.74501211471974    7.64544138381146    6.27286488538579
C         4.47180086220321    6.37163679824311    6.41604078599089
H         5.49358508437439    6.33392085407511    6.03206775261887
H         4.52479667124243    6.45445075853825    7.50088429970735
C         3.75293200440868    5.07131368386558    6.05315392104384
H         2.73718927676808    5.09312014817186    6.45418621533226
H         4.27138019220878    4.22611768046097    6.48786580548941

