74
CSD_code = MAXWIS | q = 0 | S = 0 | Stoichiometry = C32H24F9IrN8 | MND = 6
Ir        1.89325780623339    1.71186740316179   13.03920600362566
N         2.40876755000439    2.86492373333969   14.63390797627864
N         3.73996270136988    2.89389248293675   14.86817303348388
N         1.53733363715000    0.45768382460447   11.49966473029585
N         0.85910020706963   -0.67609000468735   11.79708005233356
N        -0.02313008133566    2.67900978262296   12.47738427062609
N         2.54290264782860    3.40227364586377   11.99341769465491
N         3.68070769118731    4.00858074588214   11.70985654223689
N         2.00330161733661    5.33061421214331   11.03736125557044
C         0.39928378384852    4.16066387207169   15.29552328996781
H        -0.15943443778091    3.23831121130885   15.15719898317112
H         0.13583266317482    4.85136889000591   14.49379293729462
H         0.11628457462451    4.61754164021421   16.24097552065171
C         1.85969154634547    3.88459033122072   15.28619516194955
C         2.86751994636074    4.59508540511092   15.94190953106220
H         2.74626167380117    5.47146397260667   16.54490323650794
C         4.05506770007466    3.94991868377186   15.65202718863386
C         5.41660041088742    4.36301449900409   16.07359338430669
H         6.08370608043522    4.41779450420989   15.21508285276994
H         5.83312226762311    3.67531926011291   16.80933085526555
H         5.35546782791173    5.34844601266508   16.52882654347983
C         4.48661123997897    1.84745510590862   14.30001641196472
C         5.81361134921721    1.58412230467839   14.60864347726729
H         6.36352712670025    2.19059420756844   15.30473031470106
C         6.45570464044669    0.51007066170708   14.01773293429954
H         7.48719636884227    0.28764721862632   14.23723917252767
C         5.74672789702205   -0.28081886716750   13.13631406431149
C         4.41974271869427   -0.03623762424528   12.83009652331312
H         3.92406326454246   -0.69796393619575   12.13635575321815
C         3.75668979823246    1.03630774958884   13.40949303021443
C         2.60844240888044    1.49280767343648    9.51432501543935
H         3.45205664905738    1.80277678382204   10.12728138731345
H         1.98710077388005    2.36868694781665    9.32703061514765
H         2.97346093080449    1.12341960974651    8.55994933788160
C         1.83410994422392    0.43193791225507   10.20462004410650
C         1.32310662220887   -0.74755466588181    9.65399476096526
H         1.39885749404084   -1.06239864503157    8.63358705482866
C         0.71505429359993   -1.43675253107951   10.68468968398865
C         0.05578044121366   -2.76424668966868   10.59422876321402
H        -1.01070363370424   -2.69495322441648   10.80663791803595
H         0.51004277963422   -3.47476751965482   11.28328580375817
H         0.17616639619408   -3.14175273359598    9.58189208226001
C         0.51998592450993   -0.84777375098536   13.15272701115895
C        -0.24907162833657   -1.89859038073129   13.63248455945907
H        -0.65264451948531   -2.65109051132193   12.97970416600278
C        -0.52171565980288   -1.98531786215821   14.98707170324627
H        -1.11529585269703   -2.79177761746556   15.38574690217022
C        -0.01489830508272   -1.01317587865506   15.82667585215257
C         0.73928952671341    0.04650712087253   15.35571872293520
H         1.10287962138038    0.77674875114858   16.06247377586740
C         1.02567246839097    0.16291028999508   14.00022805080731
C        -1.26859114810230    2.26711393796374   12.67837857763657
H        -1.38069755620684    1.34965888636637   13.24140952801746
C        -2.37437258057497    2.95601360621898   12.21533997840163
H        -3.36599393495369    2.57898581514451   12.40756515264154
C        -2.17917717253714    4.13706816913810   11.50741103472999
H        -3.02178859125926    4.70067364338712   11.13622613478673
C        -0.88918791557050    4.57391739205016   11.28888498443247
H        -0.66357031835577    5.47862282410967   10.74828752432130
C         0.17004073792183    3.81470292277501   11.78737128635535
C         1.54126536320130    4.20193819463013   11.59341142832050
C         3.32335941954827    5.16133518495354   11.14529687243829
C         4.32304850017091    6.12803196951397   10.62159394237218
C         4.97455986650264    5.58076654182233    9.31717777199380
C         5.72299876995318    6.66041228153338    8.49084224263201
F         6.36401967473650   -1.33574309633459   12.55874196798223
F        -0.27864739697831   -1.09236991984788   17.15098812464321
F         5.32489308240781    6.35993042705780   11.50823208804159
F         3.78001138570797    7.33704981326572   10.35388636744172
F         5.83958169612424    4.59524318346440    9.61850980748297
F         4.03035466283582    5.03382851731953    8.52016516361858
F         6.52227686376898    7.40294382050845    9.24961439013529
F         6.47864852238281    6.08965959978144    7.55207550465379
F         4.86910917581509    7.47182227809173    7.87360419019911

