57
CSD_code = MAXWOY | q = 0 | S = 0 | Stoichiometry = C27H15F7IrN7 | MND = 6
Ir       -1.90261780870779    1.45127694410274   15.53249230391594
N        -0.70756182072038    2.88019556585712   14.80302197768438
N        -0.58877459532865    3.98749783984713   15.55172108017666
N        -2.99532428245988    0.00084900804206   16.38214317821698
N        -2.29486884887290   -0.93335483824476   17.03965737754269
N        -3.52284746488053    2.26242738571805   14.32609508582682
N        -1.81736730943894    0.25778605280563   13.86725863421317
N        -1.07675053391161   -0.75052163417167   13.50323981880357
C        -2.03396920974798    2.83037621314729   17.02949314418271
C        -2.77024838682736    2.80889910622356   18.20985987798136
H        -3.34703920903712    1.93950818153221   18.48570150249500
C        -2.78040991263504    3.90132983982793   19.05902420413277
C        -2.07515143313070    5.05968671545368   18.78758790741987
H        -2.09315484498129    5.90301428311141   19.45684064904389
C        -1.33945395154020    5.09675444543833   17.61913803180061
C        -1.31093913909695    4.01207826109714   16.75286061027231
C         0.24783835590226    4.86455851147241   14.96574872118986
H         0.48711995331466    5.81478123489159   15.39546414773162
C         0.68205280014374    4.29031145057982   13.79106715277870
H         1.35943908584259    4.71015213607175   13.07739984508696
C         0.05677844607939    3.04397730304489   13.73334385296572
H         0.13998656128267    2.28025666482196   12.98556890252404
C        -0.44828357258120    0.45895404147637   16.53782669717815
C         0.91070153242713    0.72915341338384   16.62623647832653
H         1.34013187132817    1.60661612707045   16.16909345120207
C         1.75410518621836   -0.13523228084266   17.30202935893998
C         1.30116434851400   -1.28861558367979   17.91546391264351
H         1.97074034563005   -1.95200391903672   18.43626255537579
C        -0.04881878928127   -1.56574311105231   17.83202751764035
C        -0.91745871527472   -0.71609554255004   17.15891552073182
C        -3.10419012629130   -1.91923589010805   17.46501611557448
H        -2.74938177014467   -2.76852681320747   18.01039545032844
C        -4.38274812478003   -1.60049648934895   17.06055436114351
H        -5.27531215569949   -2.16531378730467   17.23058895584189
C        -4.26355862745190   -0.38738353403250   16.38348872644450
H        -5.02963174316462    0.20073681839080   15.91672728617226
C        -4.35859578218710    3.25064065410499   14.62184984960051
H        -4.22254393460049    3.71394584573280   15.58995359694551
C        -5.35373870427767    3.67863434809726   13.76437757430391
H        -6.00800263393577    4.48537960974106   14.05179705290192
C        -5.48576864927218    3.04654427826936   12.53216023125821
H        -6.25015163359475    3.35662614293731   11.83569364588910
C        -4.62653326145063    2.01654028899568   12.21691927058736
H        -4.69623208542225    1.49644702479031   11.27550359821521
C        -3.64556431038339    1.63576715413932   13.13880492797387
C        -2.72357819223219    0.56093485940562   12.90263170874752
C        -2.53749731613874   -0.33006083008128   11.84190223840000
H        -3.06360182927296   -0.39929404912614   10.91271400947220
C        -1.48654043503106   -1.13042564922439   12.28154936702880
C        -0.84107941949133   -2.25643978436456   11.56474118988551
F        -3.50860001559405    3.84506152417309   20.19143901615228
F        -0.65211019846726    6.22629414479925   17.33408295102505
F         3.06540016552809    0.15859398403306   17.37639718163603
F        -0.50909163395942   -2.68483140364198   18.43177123309630
F         0.41514536252902   -1.97661025715751   11.16092194239660
F        -1.51862377698049   -2.59085291133206   10.44843219715047
F        -0.75378782645363   -3.37804909412283   12.29980282380977

