82
CSD_code = MAXYIU | q = 0 | S = 0 | Stoichiometry = C42H33IrN6 | MND = 6
Ir        7.84429118566049    3.78240533348220    4.95993302816789
N         8.84269177436591    5.11179661958951    2.24570373981568
N         8.47928640989266    2.96257690893197    2.24451926644695
N         8.30116510308223    6.34703526347629    6.78976528121177
N         6.63426078855638    6.39282686795038    5.38590351272359
N        10.58260093443740    2.33276200030773    5.68381626836793
N         9.01355355102650    2.34058782264859    7.19715797881295
C         8.59206555668313    4.05288374641621    3.05472373671962
C         8.84265038904151    4.71611348690778    0.92907881257621
C         9.01770584196544    5.43686171233221   -0.24006798720279
H         9.20313893802449    6.49958502974668   -0.22203080370267
C         8.92741343399397    4.74372818740323   -1.43265851495451
H         9.05556335377489    5.27086735861949   -2.36577478715150
C         8.65334809759582    3.37971917937547   -1.45068238127801
H         8.56506198229431    2.87431741038305   -2.40049941103966
C         8.48106492204717    2.65392695959018   -0.28609793909187
H         8.23823107958010    1.60610941580186   -0.33547652946173
C         8.59735420637106    3.32749791620201    0.92216696416807
C         8.16239847924720    1.73608082818953    2.86350320463121
C         8.33382758922797    0.50921288503549    2.24217558628743
H         8.76100199024998    0.43895973062237    1.25380048141217
C         7.98203907900328   -0.64516770196784    2.91936666364308
H         8.10967203502400   -1.60717963528819    2.44392772942541
C         7.47180963540992   -0.55723191938433    4.20225571046296
H         7.18294943081284   -1.45673094389290    4.72845982501965
C         7.35212262991448    0.67527198262426    4.82442051927399
H         6.96867637958924    0.70692984986924    5.83569578840412
C         7.70267313992327    1.86543750445719    4.18916239023129
C         9.02533052269984    6.46679532779850    2.67740874934754
H         8.17294209674915    7.08192380782899    2.37842114419025
H         9.93524268240671    6.88342488991104    2.24001573633000
H         9.10385226887423    6.47608518989713    3.76352435462707
C         7.74617728274616    5.68914060080750    5.74215901567820
C         7.53269531655444    7.43498116308344    7.13048688613419
C         7.67918268822351    8.37542491520149    8.13609880769364
H         8.51469929411806    8.34252139566897    8.81794993860034
C         6.70350816431115    9.34901809747959    8.24188328356635
H         6.78124627776070   10.09917016639880    9.01402543695368
C         5.61135465641550    9.36635150145676    7.38000156929657
H         4.85484697200320   10.12627806627278    7.50596089966651
C         5.46158260216320    8.43167270656805    6.37167768026745
H         4.58809269269088    8.45494203986366    5.74258198760635
C         6.44677640156108    7.46351413752962    6.23125468680241
C         5.85361675762339    5.86546738312790    4.33691358807905
C         4.90033150203676    6.60658008670099    3.65675592530700
H         4.73911905218213    7.64954900817679    3.88129889761066
C         4.17005576647074    6.00360781575325    2.64774112543172
H         3.42366005185682    6.57199882371511    2.11142429293322
C         4.40464421733130    4.67722029152594    2.33226492684991
H         3.82600767031443    4.19965136538619    1.55349966072644
C         5.39416007490426    3.96595234620843    2.99207798908420
H         5.56573933338232    2.93635455596175    2.70712080989802
C         6.16462489397161    4.53123049551943    4.00690135176586
C         9.48300596005551    5.94714063250301    7.49627863796937
H         9.94979688194764    5.12694111549727    6.95288878777885
H         9.22894927481952    5.60624970871285    8.50306305088555
H        10.18147883471342    6.78369139369880    7.56974577956792
C         9.37810198770338    2.87155360904683    5.99563846539490
C        10.96625104118618    1.43268932551655    6.64966846216734
C        12.08771557457593    0.62699255717854    6.75045486857077
H        12.86014965310202    0.64326679967829    5.99734993601270
C        12.17033492698266   -0.21155719089306    7.84631910800063
H        13.02837563205403   -0.85641069092494    7.95983769918505
C        11.15462510670693   -0.25202290863232    8.79643466568805
H        11.23883732477304   -0.93745216711317    9.62625253235666
C        10.03480772295883    0.55435043924281    8.70365965385254
H         9.25253660816259    0.47523652334655    9.43925826287444
C         9.94872890700689    1.42535549074631    7.62597956509180
C         7.75593803314296    2.72187346237931    7.70803659354986
C         7.38661490842727    2.53038897650985    9.02998524590561
H         8.07368490588168    2.10649901198035    9.74580055301811
C         6.12535120278212    2.92341238347709    9.44206798427994
H         5.82578844198077    2.77609028896937   10.46983432982611
C         5.25869017715664    3.50438619364308    8.53365129921101
H         4.26744563044698    3.79915734231525    8.84975433934223
C         5.66279300391100    3.73022905306972    7.22735170754947
H         4.96801864288240    4.20494647217572    6.54719125682295
C         6.92526450718399    3.36132401663709    6.76624086094315
C        11.33341755188230    2.59682338023059    4.49132456072316
H        11.35114334966712    1.71326214499888    3.84845330496432
H        12.35952527232938    2.87383164749279    4.74327606131203
H        10.85442175942146    3.41461101125816    3.95480554880452

