102
CSD_code = MAXZOC | q = 0 | S = 0 | Stoichiometry = C40H58CoN3 | MND = 3
Co        2.92047013580537    4.03044844564690   13.92535542248014
N         3.44653236930223    5.72284856341898   14.36228039902324
C         3.62845315499600    5.73394703584892   15.70164233732189
H         2.99269524912201    5.08232244324002   16.28891599406759
C         4.55669313787095    6.52882690330513   16.33637511955345
H         4.66229872669085    6.47178570750028   17.40886315502443
C         5.33333426837942    7.40454407569946   15.58599693232067
H         6.06378342744059    8.04479069876284   16.05510079604572
C         5.11442979904275    7.44202805897578   14.21648047396304
H         5.66757174722625    8.12042391922763   13.58533060260585
C         4.17370216742175    6.60365827782763   13.65311372023978
H         3.97148730464768    6.64077940392980   12.59400665963189
N         2.89373029720566    2.24297661228531   14.02979550588393
N         1.76992911825123    4.03465464937357   12.33491771760619
C         2.45108627306622   -0.19789521848178   13.59985585402442
C         2.28022652778489    1.30858799051266   13.34619717611853
C         1.50145168055131    1.67237639562542   12.24728854522260
H         1.03462260870204    0.86412661371980   11.72053008506681
C         1.25375278660949    2.96168882169843   11.76153504157863
C         0.23734476265016    2.97819028681968   10.59234440994625
C         1.09069476459423   -0.91188875293050   13.61170537424445
H         1.22866302879072   -1.95344398787094   13.89596663821760
H         0.61030231758581   -0.89755375025067   12.63822382721782
H         0.41921097285757   -0.44946041956271   14.33207078305111
C         3.15201434953651   -0.54850867818650   14.91448622765052
H         3.30418441032052   -1.62645485186405   14.95768868117226
H         2.55471663611222   -0.26081513304137   15.77466957987763
H         4.12334583874796   -0.07225294210065   14.99377398826250
C         3.31069032901341   -0.74141702373249   12.44728860726484
H         3.43948627285395   -1.81746788034373   12.54947420435526
H         4.29292738330104   -0.27355396101024   12.45816096695184
H         2.84998552468758   -0.53855943558694   11.48444527890527
C         0.04041948066556    4.30235977038099    9.84828633594968
H        -0.24233931511837    5.11059947281914   10.51064074806366
H        -0.76223503345857    4.17175082662239    9.12209823140881
H         0.93434491223692    4.59481490110137    9.30723874020043
C        -1.12029364674936    2.59890947822100   11.20947901993035
H        -1.42034024142291    3.34715986461497   11.93926492838863
H        -1.07490100562941    1.63696160202023   11.71230130028563
H        -1.88266672424138    2.54673953019497   10.43422175213317
C         0.62114024900125    1.94603035918284    9.51486110466410
H         0.00807592515473    2.10132608430273    8.62925078950148
H         0.46419787645967    0.92149972711524    9.83800234516066
H         1.66384247053549    2.05946961507307    9.22729080361024
C         3.46224681576643    2.26453423159283   15.30011583686661
C         2.62914724773328    2.24823254068394   16.44901223845098
C         3.19744820608482    2.44446954257238   17.69430175703141
H         2.57158641322134    2.45581893823138   18.57338301229551
C         4.56250984216240    2.63359607650690   17.83809436421047
H         4.98545856428960    2.78642366746017   18.82016386145657
C         5.37923662634352    2.61995096696918   16.72563281266028
H         6.44341211167691    2.75508365045000   16.84987792301649
C         4.85764864522042    2.43421967322543   15.45241109935496
C         1.13211440258803    2.10340475126175   16.28940742560670
H         0.93641040342005    1.55973041302613   15.36070582238030
C         0.51895246047944    3.49756843424501   16.13492298474154
H         0.99413132210940    4.00583785223269   15.28775017964315
H         0.67236020524241    4.08888821409805   17.03623852649222
H        -0.54934113128102    3.42682220727851   15.94218974772831
C         0.46500471162622    1.34052312065437   17.43349864516252
H         0.97991398112080    0.40183255886449   17.62961669925848
H        -0.56726310200013    1.11722743557957   17.17087268156412
H         0.45427067533931    1.92627874172021   18.34961885166536
C         5.79224996311219    2.36837793683235   14.26401651248645
H         5.18791936710354    2.25090573382836   13.35785561387079
C         6.61199012725221    3.65430312742000   14.13277502056213
H         5.96128481676084    4.52457835731690   14.09981269633441
H         7.19967128864801    3.63168874518243   13.21773034131391
H         7.29240288013414    3.77033574387336   14.97325811240222
C         6.73451921107755    1.16544150927166   14.36987571120672
H         6.17895068632185    0.23107379505709   14.41112982932636
H         7.35114253013314    1.23244934099139   15.26321485060853
H         7.39085537091078    1.13269796714328   13.50251488666884
C         1.79921007450775    5.31922289227046   11.77227858809374
C         2.72227960648969    5.59550517892303   10.73820542514846
C         2.83766383896349    6.89282510316186   10.26501971831887
H         3.55075945393646    7.11936613506859    9.48754429455314
C         2.05299661506813    7.91290347441005   10.77290809666234
H         2.15815354891006    8.91832375427406   10.39241567882811
C         1.12901668047935    7.63480627757337   11.76122236443935
H         0.50684707514123    8.43198973578719   12.14024822681554
C         0.98040202868357    6.35249245627033   12.26601568018179
C         3.59538159238513    4.48622892547336   10.19003813827708
H         3.03090373440434    3.55228248603533   10.25613823542986
C         4.83382828383010    4.32376626761236   11.07262233470901
H         5.43853253881083    3.48691240242807   10.72949626462911
H         4.51313079024294    4.12824565932544   12.10012298762083
H         5.44288069153516    5.22540312123410   11.05686553482910
C         3.99970770193421    4.68563743812966    8.72945941582800
H         4.45112593038164    3.77179351038470    8.34740372550521
H         4.73063853902292    5.48421325235169    8.62529622633262
H         3.13482740021039    4.92362470637519    8.11332764945712
C        -0.07282650082529    6.08148586795873   13.31708059745081
H        -0.03123698887664    5.01679434680475   13.56406580700796
C         0.19704974846278    6.88757901229145   14.58952850714453
H         1.20342275347573    6.70073455656366   14.95136018323776
H        -0.51048572918210    6.60866296758343   15.36776962273988
H         0.09512220286608    7.95357075181064   14.40018298222476
C        -1.48016205972531    6.39962703294695   12.80275936929960
H        -1.72168859051317    5.81301144599329   11.91961222189486
H        -1.57100560134914    7.45208779273934   12.54481247941099
H        -2.21517232049325    6.17335407457601   13.57308539534437

