49
CSD_code = MAYBOE | q = 0 | S = 0 | Stoichiometry = C23H17AgClN3O4 | MND = 5
Ag        7.98606124276044    8.20363211487639    2.68684166297833
Cl        6.28741970685431    9.48107187443297    4.27993893013773
O         6.46367151355935    8.09968054382552    4.62199342131105
O         7.57595128866224   10.10687787201545    4.27756467474219
O         5.74931359868260    9.55935887605268    2.96275880804720
O         5.44200985426339   10.10684577680160    5.21032193716346
N         6.61040740912355    7.41874402848049    0.88075663510893
C         6.42797512984629    8.34891091933924   -0.03519738665701
C         5.69073388020120    8.10340493243243   -1.21602805496705
C         5.12753539356515    6.87405968608643   -1.41206192665146
C         5.26382499502150    5.88185396841668   -0.41850209387850
C         4.68335466282574    4.60135701261410   -0.50744807444161
C         4.84001756840734    3.69912900991114    0.50856370647343
C         5.57475875653161    4.03788413072492    1.65802549245769
C         6.16015633903368    5.26778645351489    1.77043472968914
C         6.02706075933584    6.21411177277109    0.73410415989153
N         8.13229221285544    9.67100270562718    0.95459520057707
C         7.00904964987536    9.66714172196196    0.25776568749222
C         6.35294476196938   10.85239243509522   -0.13107696445228
C         6.87251164168961   12.05862718258721    0.24826054516896
C         8.05814996530707   12.09454645463964    1.01029449724059
C         8.64905324945681   13.28431481056565    1.47853036349695
C         9.78773872938124   13.24059746067950    2.23460543170497
C        10.39135803932309   12.01154928938617    2.54767960025677
C         9.84791905028509   10.83856155082491    2.10336735993944
C         8.66315551364905   10.85226665998361    1.33948550116711
N         9.53397051332438    7.36533816047121    4.09512955324384
C         9.04020074262579    6.15622126489212    4.38449488877863
C         8.61896484938202    5.78670778364932    5.64957494473211
C         8.71657994613436    6.70873098588280    6.67889393370785
C         9.26607751022799    7.94902424296184    6.40060650278842
C         9.65525405684589    8.23291316208333    5.10316881735085
H         5.60171117398151    8.87833439839258   -1.96109608496817
H         4.57097387878890    6.65152958105064   -2.31165779796834
H         4.10838291167423    4.35064815354470   -1.38723196068073
H         4.38997973374694    2.72005660184757    0.43913594482026
H         5.66510136651221    3.31603383012613    2.45596624037739
H         6.70657937053695    5.57356710785833    2.65618958582775
H         5.42747404065113   10.79734234559890   -0.68178394189187
H         6.37967005029385   12.98459868624372   -0.01196180613894
H         8.17835913700290   14.22722743565510    1.23990324659574
H        10.23048659576768   14.15502930587757    2.60092806259045
H        11.29043970440507   12.00487080190923    3.14591015147545
H        10.29126043428950    9.87257017838206    2.32512655936759
H         9.03443907980180    5.44424032348427    3.56546435852385
H         8.21692015317737    4.80029259732138    5.82210493938413
H         8.38060272058229    6.46246707143557    7.67502568494696
H         9.37638702777833    8.69558814907164    7.17104280132315
H        10.08686008998869    9.19415858863582    4.85589153180438

