38
CSD_code = MAYBEU | q = 0 | S = 0 | Stoichiometry = C18H12AgClN2O4 | MND = 4
Ag        3.20293362130799    7.42016422979840    6.48042291875184
Cl        1.91937441456991    9.45310181213468    5.61350045042859
O         1.49013855187891    8.25568232476364    4.95385468453021
O         3.32347881292208    9.60738593183757    5.36862465089008
O         1.74211411333139    9.26345091946368    7.02488659097320
O         1.20330662810692   10.56436571170253    5.16078300961244
N         4.94294260258780    6.92803882465991    7.91780508065452
C         4.94441828096998    5.67872029061474    8.34913739923658
C         5.47405596778098    5.31690464667927    9.60607335511231
C         6.00531953080155    6.28562633226662   10.41156418917065
C         6.01693556019242    7.62637134862495    9.97416807354641
C         6.53694173146434    8.68973542248975   10.73753544750519
C         6.50424362544499    9.96833444737593   10.25178833321334
C         5.95795095117262   10.23947176614498    8.98564920285092
C         5.44874870536920    9.23089830254384    8.21439585869427
C         5.45922331360791    7.90510699828685    8.69517259008595
N         3.36066859706812    5.10628914945279    6.68070303487315
C         4.34709913720669    4.68288973444397    7.45010053415967
C         4.80969968986673    3.34960369705039    7.41159113279474
C         4.21082550655460    2.45775535345464    6.56643364989479
C         3.14707473144547    2.88358896273932    5.74420438945809
C         2.46749820627105    2.03404452124714    4.84943387830137
C         1.45261153536075    2.52078751299486    4.07193743292181
C         1.07755431540940    3.87306946048892    4.15039777648879
C         1.71292406155759    4.72604426147793    5.01063835212317
C         2.75867322373438    4.24986739424364    5.82799138846751
H         5.43125834882296    4.28961907071200    9.93134147449922
H         6.41259250742953    6.04052226190058   11.38197066594130
H         6.95363589164827    8.47608024499831   11.71101774196817
H         6.89959134336192   10.78147651345636   10.84196219969838
H         5.94253556010387   11.25619683084822    8.62427685264094
H         5.02379442240447    9.41688822765023    7.23285551125887
H         5.64255031680100    3.05332677287324    8.02907378225484
H         4.54296347677093    1.43074674622360    6.51469080067973
H         2.76607475833584    0.99758659289687    4.78859574841589
H         0.93320646091278    1.86683424723401    3.38766392855850
H         0.27931812595944    4.23692255390974    3.52198443687562
H         1.44302337134845    5.77610058027299    5.07977345241320

