61
CSD_code = MAYFAU | q = -1 | S = 0 | Stoichiometry = C34H16MnN10(1-) | MND = 6
Mn       15.25014060058635    9.24117936498801    8.79301365833211
N        14.40523709069852   10.29141492937053    7.39384933815221
N        16.34008430308204   10.85562476989247    6.09086338361147
N        16.96193382030947    9.50945209720477    7.99039290566571
N        12.09582406130679   10.18988328572392    8.08214421114908
N        14.63100492797792    6.64776174674344    7.20076289475762
C        13.06471592976279   10.56879734687412    7.28292687232859
C        12.83658682303276   11.37937337045722    6.10538683564081
C        11.69151539472017   11.92220757491950    5.54627379055453
C        11.82945614594332   12.66527357683335    4.38642640831648
C        13.07657491574014   12.86291263394068    3.79778767944273
C        14.22575362357749   12.32370705941812    4.35049624265208
C        14.09529795324088   11.57930850578199    5.51076438849714
C        15.05152955141036   10.88359766997750    6.34580815410674
C        17.21398190955851   10.22537818824456    6.84583682210281
C        18.62686790707553   10.19928496908822    6.55898943121151
C        19.39169497773235   10.75288466329628    5.54247818519586
C        20.75502632265329   10.52902088608698    5.56693930949715
C        21.34812413927104    9.77158819627881    6.57865150143826
C        20.59516797130740    9.21618184733866    7.59550900077287
C        19.22529452325975    9.43525772012405    7.57991403559965
C        18.15776669071624    9.02051461916712    8.45593611462462
C        14.84900119829574    7.60859629391582    7.79701836904546
H        10.72984859800068   11.76400588181342    6.00905654900232
H        10.95457942599977   13.10269163939521    3.92493917179114
H        13.14433735685022   13.44943529632356    2.89167694415179
H        15.19549630865298   12.47205954018963    3.90096946442278
H        18.92467412629301   11.33693821405504    4.76457362236433
H        21.37980958633333   10.94664945188072    4.78918495305092
H        22.41879905186985    9.61956180458952    6.56134271909551
H        21.04469179964034    8.62940092624336    8.38160014286243
N        16.05397854650324    8.18627801816388   10.20807922582398
N        14.10666274009155    7.62113745919899   11.51487906687724
N        13.46209272005560    8.96203482635015    9.62967188393351
N        18.35388636509497    8.28395501865324    9.52836315573862
N        15.40997821504693   11.77852541056041   10.57632928248258
C        17.38551763310261    7.90301490756458   10.33025104356816
C        17.60782411983844    7.09242571590065   11.50877999316624
C        18.74810126779269    6.54650994176620   12.07375503909977
C        18.60121287054370    5.80455853044823   13.23337501648473
C        17.35002755776411    5.61176008508789   13.81499955465770
C        16.20586291215700    6.15452209639027   13.25578925516993
C        16.34458312413296    6.89806036003320   12.09548033524519
C        15.39265536639296    7.59548857456023   11.25708941263457
C        13.22058712093448    8.24857170884112   10.76739845676874
C        11.80621797377562    8.27334123960805   11.05630888211921
C        11.04094695233839    7.72010719255537   12.07170109561392
C         9.67683783947907    7.94384789742679   12.04750002580649
C         9.08447158376661    8.70105603475999   11.03653430704574
C         9.83856213861653    9.25670847141576   10.01963105357488
C        11.20781272104988    9.03811240202544   10.03472534894662
C        12.27854633881044    9.45233650499568    9.15918012072952
C        15.33727517300401   10.83448981263043    9.92066084026353
H        19.71341539858293    6.70063054555398   11.61674196855395
H        19.47220791074061    5.36452123914584   13.69971897169536
H        17.27557411329743    5.02596670678544   14.72103025725564
H        15.23292141011660    6.01032668514487   13.69924044499475
H        11.50694063540250    7.13569246272625   12.84987126415579
H         9.05228374494014    7.52584268062181   12.82524088743252
H         8.01384070379381    8.85343924171580   11.05322494551893
H         9.38835776793580    9.84349415921284    9.23403576520458

