39
CSD_code = MAYGUO | q = 0 | S = 0 | Stoichiometry = C19H13BrNO2ReS2 | MND = 5
N         0.15040187860028    6.79733480896352    1.92832847244106
Br        6.89466573055387    8.61856110955654    6.25886730234424
Re        1.40183633271333    5.42761196741555    3.05311699704752
S         0.56380596012065    3.93376138250124    1.49163591240281
S         3.25152176760953    4.06683121528660    3.57424521556697
O         0.45761316760537    5.12040260515059    4.38545120240828
O         2.77351973328936    6.68326929269359    2.45486145350760
C        -0.91759952356952    4.81042791892003    1.14534800741390
C        -2.00329401186306    4.14566404628037    0.58615315972284
C        -3.17519082943055    4.82748613699987    0.33052243764502
C        -3.27660616386764    6.17724485280193    0.64313537544709
C        -2.19989957040007    6.85357984265882    1.17855976331391
C        -0.99823029878224    6.18656339856037    1.42428390023512
C         0.37922174838148    8.06163274212840    1.74825161614552
C         1.59669105192963    8.72146094430656    2.06248605567681
C         1.68082009025213   10.12284942420741    1.96441000436673
C         2.86590533507373   10.77805870232195    2.17367906898115
C         4.02571553181839   10.04779638317490    2.45270791887133
C         3.98757233975740    8.67947222706251    2.52990428298147
C         2.77588839905415    7.97723518982498    2.36407311675915
C         4.26452013973388    5.25645981070150    4.38218024074602
C         5.62185727265148    5.33032143932339    4.08105337856917
C         6.40838747162186    6.31241732200853    4.65179478600175
C         5.83027529244688    7.22004284055949    5.52496460147189
C         4.48878537494033    7.14035575934790    5.86357432489215
C         3.71006325821080    6.14912044861577    5.30007521460592
H        -1.91184176456562    3.09252924413377    0.37326960989624
H        -4.01938534983523    4.30691984391233   -0.09403053886574
H        -4.20402164997405    6.70274490100397    0.47543753451952
H        -2.30571889099913    7.89448944663004    1.44514520409278
H        -0.37516738597263    8.67316900634918    1.25253558188706
H         0.78128982377136   10.67758275537151    1.73778319129236
H         2.91046538351985   11.85437436140079    2.11663229399747
H         4.95913148719710   10.56680506019750    2.61025680967085
H         4.87471625817486    8.10070260086927    2.73898305231404
H         6.04790772282248    4.62599243993452    3.38396452149914
H         7.45792894226063    6.38405379656248    4.40941689406478
H         4.05945828530158    7.84638445872566    6.55796453404134
H         2.66078965985434    6.06259027355074    5.56307750201757

