89
CSD_code = MAYGUR | q = 0 | S = 0 | Stoichiometry = C28H54BFeNO2P2 | MND = 4
Fe        6.02266234919653    9.29179254913556   13.06613981084588
P         6.34724361516885   11.43214380113072   12.91892029403724
O         3.28272294922388    9.22226661137039   11.93978168815058
N         7.99786468891370    9.29149958490257   13.07061141958756
C         8.14240479733469   11.71634488478053   13.31713834368102
H         8.59775654802715   12.48782241045118   12.69402030681698
H         8.22261767529077   12.04289473707683   14.35932471766110
C         8.79967380483740   10.38486326245939   13.15585647046092
C        10.12078406878119    9.99534244250368   13.12957143351601
H        10.98317085348763   10.63487146379470   13.18212632119302
C         6.28441035019868   11.67164349015562   11.02811551004902
C         6.54773988206024   10.24363221396402   10.51937248940600
H         7.55991803659128    9.92339761525250   10.76139903092444
H         6.42892458474742   10.20043482667483    9.43637905646170
H         5.81620146896465    9.54308353535151   10.96940394521887
C         7.31540528229226   12.62829631361889   10.43078656477450
H         7.13507364984962   12.73100323885708    9.36055040879980
H         8.32571233295194   12.24811683437625   10.55973951959826
H         7.25071486551067   13.61828876100496   10.87741645069774
C         4.88333209337346   12.07162766736978   10.57075716303096
H         4.79842881326848   11.93775518022049    9.49186358231078
H         4.67598103710993   13.11622711059955   10.78816211921938
H         4.14173320034368   11.43731543678324   11.04932650223433
C         5.52272824265497   12.84231085807721   13.88654129761536
C         5.65239475817248   12.38719342057468   15.34578277218246
H         5.16592831201300   13.10234804873422   16.00840653602645
H         6.68836161266291   12.29322929610976   15.66289342032388
H         5.16478973852987   11.41822575732024   15.46298348180840
C         6.16993890290291   14.20687551077902   13.67235837015073
H         5.67840354724709   14.95053579834040   14.30006010194761
H         6.06977299546313   14.52424894492458   12.63635939708852
H         7.22571832128311   14.19301308946473   13.93126057523156
C         4.02749095987227   12.90296783519610   13.58466082125740
H         3.81596355223270   13.41535775699684   12.65168553042398
H         3.51067762063153   13.43878725143301   14.38145469415994
H         3.63736031773361   11.88925048199344   13.53930122559176
C         1.89781926704808    9.32299497740586   12.28576011623837
C         1.36589136830839   10.64259495007800   11.71068939635522
H         1.51072524778307   10.63092745381081   10.63237084575778
H         1.90366546371989   11.49610764584956   12.11097503172076
H         0.30572845620297   10.75548674210382   11.91955738165936
C         1.13092941434072    8.18491385999304   11.60733855962034
H         1.52366064617088    7.21183715927507   11.88133128857812
H         1.23159259094218    8.29418371426308   10.52982932389671
H         0.07643989966433    8.23265787208260   11.86646805778434
B         4.07268821671957    9.29397229967912   13.06379523976584
P         6.34926401666841    7.15144008314724   13.21660374981994
C         8.14507306048480    6.86740507215278   12.82188857299115
H         8.59924284578337    6.09398648365054   13.44343992499052
H         8.22785862265482    6.54468046769556   11.77882720565263
C         8.80104597445045    8.19885912635348   12.98875112027346
C        10.12166195851847    8.58954653019833   13.02110371851037
H        10.98489196313886    7.95084757781676   12.97235032185259
C         6.28554672323259    6.91707133851292   15.10838991570661
C         6.53105955613640    8.34888614337484   15.61535818365072
H         7.54171791890353    8.67841013883222   15.37963448999226
H         6.40456043203721    8.39328576931034   16.69742233377108
H         5.79573183635597    9.04110816593045   15.15926161106505
C         7.32718505723006    5.97485802096756   15.71015644306782
H         7.14956678978583    5.87771743499613   16.78140775030387
H         8.33318777142977    6.36490420664967   15.57696830490480
H         7.27209691843346    4.98119169041409   15.27047500673421
C         4.88867605615923    6.50094756555298   15.56392016312233
H         4.80168655809654    6.63036540331716   16.64319532594622
H         4.69237459099031    5.45487768330481   15.34294098915459
H         4.14105781900478    7.12917124926182   15.08673876279692
C         5.52565644731862    5.73499543046205   12.25682095743107
C         5.67573901806497    6.16548135195715   10.79207025804101
H         5.17112397822944    5.45541327776040   10.13759728897787
H         6.71525854369817    6.22286795713073   10.47823462492725
H         5.21744738497544    7.14666870739700   10.65791011532062
C         6.15923965419328    4.36879928567913   12.49889975366040
H         5.67155914952375    3.61990048872629   11.87442847010237
H         6.04260983616481    4.06627532739210   13.53760005406395
H         7.21868907964916    4.37259351232162   12.25466675870034
C         4.02630879959760    5.69352866028905   12.54223935064288
H         3.79887959496355    5.20109255850948   13.48214312515186
H         3.51368489006064    5.14743156329085   11.74971760002554
H         3.64521112060593    6.71162119202488   12.56355507254262
O         3.29252997182861    9.36802232202315   14.19463113673954
C         1.90461725776480    9.26888604172061   13.86061452980558
C         1.37695779314285    7.94937489854675   14.43967768012358
H         1.53245167775159    7.95987983954462   15.51653200870162
H         1.91012743231091    7.09606338091953   14.03282784871763
H         0.31468202159496    7.83763444779053   14.24125058610608
C         1.14490711312548   10.40756535594892   14.54599529677433
H         1.53546457956070   11.38033436372220   14.26785098928760
H         1.25600353993885   10.29860290784596   15.62253016952299
H         0.08791824660733   10.36032228125896   14.29714581644859

