39
CSD_code = MAYHAV | q = 0 | S = 0 | Stoichiometry = C19H13FNO2ReS2 | MND = 5
N         0.23468608062277    9.88264717096679   11.77683497018899
F        -0.51783028258748    6.39206485694755    4.71727040183858
Re        1.69730401348831    9.36400807722035   10.25935167102653
S         3.08196806185298    9.31151487357257   12.11947321857057
S         3.13979860655774    7.99918770490402    9.00564830140019
O         2.05711960621688   10.84148432449185    9.58741646059157
O         0.43486060954603    7.88988812770859    9.98642286281138
C         2.14743179072549   10.43003802838874   13.09876052666336
C         2.75109733257041   11.10403221348576   14.15431849602640
C         2.02247322857826   11.99898917334919   14.91070108321672
C         0.68690817450624   12.23631800386883   14.61171639412825
C         0.07020048066245   11.55800674435382   13.58047726388902
C         0.78492593337716   10.63364647585661   12.81664320216207
C        -1.02846211748665    9.58742588899947   11.75615846206798
C        -1.64389351586076    8.69872026902683   10.83613474287377
C        -3.04546592268083    8.57130860352855   10.81865023631848
C        -3.66427679211764    7.66363456228871   10.00012747893328
C        -2.89655667203946    6.82176471645231    9.18854783078695
C        -1.52802859844576    6.89958530862671    9.19700015019487
C        -0.86056237622493    7.84774014442207   10.00074051815803
C         2.06873770022064    7.53185100236630    7.68856855558989
C         1.24396771884882    8.47795095908327    7.08080382063054
C         0.36917547371126    8.09734799552303    6.08187966210277
C         0.34546651439366    6.77106223740013    5.68539905627192
C         1.17688293832605    5.82105289281491    6.25308695402301
C         2.04071306818176    6.20762799452918    7.26025361734777
H         3.79500023589284   10.92318135424448   14.35495415840922
H         2.49635603296246   12.52924053941435   15.72199857554338
H         0.12614093297051   12.96139848686482   15.18115375587998
H        -0.95931939913608   11.77813068421419   13.34066021481989
H        -1.67876015125382    9.98436909957423   12.53630056318694
H        -3.62946970008552    9.22134948378363   11.45478047211727
H        -4.74048503650184    7.59093877037051    9.98275068668738
H        -3.38754269220116    6.10425908342675    8.54855575814896
H        -0.92116136165296    6.25595552213375    8.57794263801003
H         1.29634555258739    9.51363859101881    7.39970950985476
H        -0.28589867146667    8.81127683483813    5.60801163807223
H         1.13468464404577    4.79843615850598    5.91212737141716
H         2.69206855889928    5.48742704142655    7.72966872003448

