119
CSD_code = MAYHUR | q = 0 | S = 0 | Stoichiometry = C62H53FeN3 | MND = 3
Fe        7.68451844673833    0.52610520455938    5.31400862939481
N         7.61057162299237    0.88862678796152    3.35696728197660
N         5.90380041564704    1.38390798333063    5.34828331684475
C         7.12919867889793    1.88188567927592    1.15641048640476
H         7.94605312812380    1.24790460872594    0.81774345697721
H         7.39727520864743    2.92187092139732    0.97623502545322
H         6.23798193017660    1.65900816605705    0.57139250307112
C         6.84108302843260    1.66319532208956    2.62081290347844
C         5.70416686773856    2.26962345541288    3.15091723700349
H         5.11915674160851    2.89201656707588    2.49242068591518
C         5.26632600972294    2.13654960106304    4.46403471351748
C         4.05760367151674    2.94880828520497    4.86088444632857
H         3.89057510925201    2.91531430301455    5.93530963163889
H         3.16482785394046    2.58169291456972    4.35739893969738
H         4.20958584451192    3.98418909562510    4.55845189806898
C         8.93082705152664    0.60418963387764    3.02821176043348
C         9.40917056522865   -0.72318498895536    2.95413256637106
C        10.75407560442906   -0.95218991712535    2.69671289827644
H        11.10630769737267   -1.97122073223219    2.63846867293541
C        11.66058008086703    0.08575677697091    2.51311747241384
C        11.18484073353904    1.39144914878416    2.58327881707581
H        11.86664734246439    2.21786138842638    2.44174205740398
C         9.85033676346314    1.66252910362340    2.83412188351106
C         8.52817634384388   -1.89021118977750    3.13381561453974
C         7.25459934531598   -1.94497519236703    2.56933349495104
H         6.88546795998782   -1.10666627114586    1.99892016493142
C         6.47268430449191   -3.07799465944640    2.70743154715186
H         5.48989927591691   -3.11194083772070    2.26060351866504
C         6.94373704818706   -4.17361420723998    3.41018058949277
H         6.32869192222536   -5.05527536200963    3.51552885066578
C         8.20900468851067   -4.13273714264300    3.97067348278594
H         8.58712582210966   -4.98092953829407    4.52194324352375
C         8.99461269015780   -3.00507238393283    3.83175697802777
H         9.97094878937285   -2.97932833042322    4.29090937971996
C         9.42445521705463    3.06946820476129    2.93331998960981
C         9.76850139745144    3.97902777830787    1.93594929201794
H        10.33225535886070    3.63894880284152    1.07866556257526
C         9.37387926478302    5.30136336015878    2.02417027704359
H         9.64128594475161    5.99568304042264    1.24054437411480
C         8.63103700201588    5.73356915214321    3.10990806444535
H         8.31514004555966    6.76453589696073    3.17415879226816
C         8.29859409818293    4.83861465534879    4.11362366435494
H         7.72356085133214    5.17477811962133    4.96389397477075
C         8.69724450389758    3.51809746203296    4.03186667423227
H         8.45019873715870    2.81799646281342    4.82471834957698
C        13.08118183763307   -0.18801448279675    2.26045344175107
C        14.07139889084650    0.58355512364506    2.86554213155226
H        13.78888656299953    1.37959853956516    3.53963344014375
C        15.40862547552257    0.32458959669216    2.63113503846620
H        16.16477687688949    0.92823252247113    3.11233465555460
C        15.78103989703244   -0.70646177413344    1.78497614155935
H        16.82615237994882   -0.90681346314935    1.60030250542990
C        14.80570585275364   -1.47933423851759    1.17707715338707
H        15.08989688882512   -2.28276842173368    0.51274885545922
C        13.46807900383306   -1.22509481194230    1.41409529655767
H        12.71206030496603   -1.82122014841595    0.92381287924545
C         5.25913687598488    0.93572137748762    6.49732373566068
C         4.02814151472080    0.24705309393426    6.41069113925314
C         3.40606111102607   -0.20593938014356    7.56410281924324
H         2.48021884396336   -0.75526625057598    7.47403911636863
C         3.97001632090818   -0.02071524383152    8.82192560807045
C         5.20425978111600    0.61624752993558    8.89828705722497
H         5.65299284739587    0.78795802950188    9.86581841943824
C         5.85481561058913    1.08927464489522    7.76748542965861
C         3.39155544717452   -0.03042701536334    5.11103576992772
C         4.12210786200202   -0.53438918371099    4.03784644007769
H         5.17745248431788   -0.73829247700334    4.15577858689088
C         3.50431540963541   -0.77455095237865    2.82498488066208
H         4.08444646109092   -1.14948982232535    1.99500613456701
C         2.15051073309474   -0.53206168884207    2.66478648926390
H         1.67285903886092   -0.71692169377775    1.71368404769940
C         1.41089738048985   -0.05163422948818    3.73216497126783
H         0.35299372043933    0.13666430569364    3.61730766336658
C         2.02679215897654    0.19821417066595    4.94422980758645
H         1.45036981615266    0.59739750968475    5.76693415134030
C         7.17879614156151    1.72066944679823    7.93520377553876
C         7.50404842722036    2.93268398512627    7.32595055160830
H         6.77153504827663    3.43241869202748    6.71001296570390
C         8.73799332804315    3.52076358511837    7.54908649899037
H         8.97832748076132    4.46239852780348    7.07759071082703
C         9.66453768320833    2.91230271312268    8.37806560162242
H        10.62632589492477    3.37457477221604    8.54710991340341
C         9.34855409265076    1.71312561757163    8.99642121763780
H        10.06498031546167    1.23245182171726    9.64706772038871
C         8.11739476528335    1.12537155016009    8.78141773313796
H         7.88603887739732    0.18339921197597    9.25689029669815
C         3.28846622520113   -0.49489616071047   10.03282994255096
C         1.90797043677678   -0.36292270460088   10.16848717586865
H         1.33871603232598    0.10793834008216    9.38009710151255
C         1.26595783472398   -0.80393493796141   11.31013382858573
H         0.19556455176614   -0.68893826410247   11.40303805636576
C         1.99055813679623   -1.38871581948990   12.33525322398369
H         1.48826447923778   -1.73416520073065   13.22678419855861
C         3.36268099034352   -1.52844581255684   12.21048338851810
H         3.93286302135412   -1.98835460303569   13.00480440472734
C         4.00679865637794   -1.08445590380766   11.07113948528620
H         5.07490696628493   -1.21366304342663   10.97344685818036
N         9.13687851090044    0.00572495248796    6.13088747700215
H         9.87598866481619    0.70853254474766    6.20714979461604
C         9.56361128795194   -1.20179013626340    6.61550412406833
C         8.62629164452784   -2.23632195627498    6.80757616555397
C         9.04318332863480   -3.45748729338790    7.30416196077351
H         8.31006895719640   -4.23850108140978    7.45362980482191
C        10.37357365000326   -3.70494811230229    7.60989192895676
C        11.29529536989951   -2.68737236701111    7.39721504439450
H        12.33915195941032   -2.87103488493779    7.61383783461752
C        10.92058003597382   -1.44847189368024    6.91183368729506
C         7.18699659072791   -1.99245969612283    6.47687727166485
H         6.60998925104732   -2.91036617560010    6.54738797865999
H         7.08844182360545   -1.60323172033466    5.45210014790826
H         6.75740307952216   -1.25977346035116    7.16371022156216
C        11.95615380288207   -0.38735897911065    6.66480663714731
H        12.94650765091504   -0.76395874984334    6.90883366354535
H        11.76788425667280    0.49769496868104    7.27569636380015
H        11.95417764843534   -0.08528058437411    5.61555315534358
C        10.81821590869001   -5.04119615589092    8.12602498112706
H        11.55424072293683   -4.92393872456820    8.91947616578422
H        11.28088888188348   -5.62131698171723    7.32612082683716
H         9.97383919090018   -5.60778762067651    8.51169314344660

