69
CSD_code = MAYJIH | q = 0 | S = 0 | Stoichiometry = C26H40AuOP | MND = 2
Au        9.75888412246481    2.51786814629522    4.95228040864832
C        10.72515118680077    3.74425145989142    6.26675536128201
C        11.72098473293885    4.64639261565346    5.86978202370340
H        11.98968356904164    4.70585218992730    4.82165527169638
C        12.38117160563486    5.47019229694511    6.75668782571430
H        13.14570501778451    6.15440485963628    6.41621078643925
C        12.08116332281770    5.44229218729003    8.12019122682093
C        11.09143276145162    4.55750536793276    8.54824107702077
H        10.82031184262454    4.49760190993359    9.59262122500101
C        10.44482479650411    3.74306300595348    7.63998034396719
H         9.68409898257408    3.06953331202894    8.01811148000810
C        12.82441971021955    6.34056460661874    9.02098997530238
C        12.47214036024276    6.29162718301519   10.49379113421261
H        13.09041286429377    7.00545834354179   11.03276645572685
H        12.64972514071447    5.29297355803169   10.88708462485784
H        11.42346105048488    6.54280793429949   10.63691201975564
C         7.14152988398897    0.32365740987020    3.97643749329801
H         6.35622664018302    0.99568857042267    3.60177847186985
C         6.86594348204238   -1.08196483831458    3.44283732764935
H         6.91554057820043   -1.09990614566665    2.35257493921616
H         7.60893302177197   -1.78260901467799    3.82778308399512
C         5.48125533413076   -1.53964495786317    3.89931904009350
H         5.28317736051691   -2.54253198775782    3.51537381563021
H         4.72103014088020   -0.86961250391481    3.48997250197818
C         5.39230713312145   -1.53725667202761    5.42228583989695
H         6.11577395200109   -2.24811215906716    5.82843744927522
H         4.39735197205790   -1.85720073736449    5.73694334696973
C         5.68816285797695   -0.14424776434021    5.96993780911094
H         5.65178925065189   -0.15558229100626    7.06067021541527
H         4.92422880697301    0.55349550500596    5.61789257584644
C         7.06069792579979    0.33377462425515    5.50549720503989
H         7.83416643754788   -0.31586215249275    5.92271097259941
H         7.24875501548166    1.34671241832767    5.87396070681421
C         9.87406696753389   -0.23878789091213    2.92377444226363
H         9.33709478947853   -0.96302457722208    2.30028929024156
C        10.38534293807306   -0.92249018053186    4.19464781128846
H        10.85512545866943   -0.16702654170562    4.83343436920636
H         9.55385208625790   -1.35598623186327    4.75504831964023
C        11.40296176353508   -2.00946817469896    3.86459124385926
H        11.75349159088321   -2.47523469361983    4.78751961294855
H        10.92725621980445   -2.78430256877172    3.25742796026617
C        12.57856245086523   -1.41347596488804    3.09893912464588
H        13.30035757427433   -2.19428731738886    2.85262516401151
H        13.08213924493140   -0.67481623567759    3.72609309829645
C        12.08204320763700   -0.74262996843125    1.82345531904123
H        12.92053667520883   -0.29924534436245    1.28305588734406
H        11.62559153991856   -1.49395273290628    1.17344792089678
C        11.05338352213296    0.34032501902047    2.14085596959247
H        10.70867152269211    0.78329973104542    1.20412381941927
H        11.52297237926066    1.12879451870339    2.73816869442520
C         8.30043726382387    2.02877401747497    1.88800660855031
H         9.26606976383010    2.39649129480987    1.51244525511067
C         7.62122026529790    1.20702073683961    0.79512685125163
H         6.64699236627002    0.85945387408282    1.14540584507967
H         8.22596892777521    0.33363488869178    0.53963539068059
C         7.41801448765218    2.07267050753540   -0.44735309508844
H         8.39024681354764    2.38854118549526   -0.83322237325950
H         6.92391691349713    1.48715079348081   -1.22554821155691
C         6.58153384456539    3.30397053540941   -0.11154692599911
H         6.45809625540293    3.92173388760556   -1.00276011955113
H         5.58776563567281    2.98849862592521    0.21564700539200
C         7.24561559461854    4.11758445681177    0.99598756368449
H         6.62687709962368    4.98095116169961    1.24717629978187
H         8.21120468065350    4.48923537374804    0.64556402664315
C         7.45568208879437    3.25562806186838    2.23771118030640
H         6.48139521009781    2.94643054671147    2.62508477645924
H         7.95757437769476    3.83491174917442    3.01936426102899
O        13.68740163106633    7.09421035693487    8.61502885024268
P         8.73969598904508    1.13223081951576    3.45197472898089

