40
CSD_code = MAYJUS | q = 0 | S = 0 | Stoichiometry = C22H13MnO3S | MND = 8
C        10.14909863623944    4.13225830205229    6.82754997760671
C         9.56156698519412    4.08125164034908    8.08733437922201
C         8.25613986163843    4.25792993388851    8.68110968679342
H         7.37432993001848    4.58296099392791    8.14583413034026
C         8.45192701677258    4.43553023287597   10.07180155703721
H         7.70111629054694    4.80142965552893   10.76413309406385
C         9.79430758680581    4.14192018478444   10.41061670272528
H        10.24175306702589    4.36489261127070   11.36974748310875
C        10.52585939775344    4.00836927895960    9.17172848035839
C        11.84716180871401    4.00582407268174    8.73733896222611
C        13.07319600808056    3.95584378225770    9.49570561962197
C        13.09172555017567    3.47037599343054   10.80703671627151
H        12.18617692237433    3.09246238904190   11.25591723538665
C        14.27221627930030    3.43382619918420   11.52191677378753
H        14.27048392506152    3.05133668082381   12.53190969943497
C        15.45415231028604    3.87481016647637   10.94926601288303
H        16.37428640693728    3.84558503157887   11.51303754231785
C        15.45058740801095    4.34594720960574    9.64557411138301
H        16.36911539860293    4.68539428064764    9.19005958272210
C        14.27519843974868    4.38586277337732    8.92517415474083
H        14.27357216587297    4.75955252899881    7.91071588552053
C         9.54084071152938    4.21479818181300    5.52227918460844
C        10.28050106625322    4.66642901963657    4.42485828603773
H        11.31189615249522    4.95724904394808    4.56763358885209
C         9.70489844109022    4.75151871234845    3.17445696479688
H        10.29051343555963    5.10538019069722    2.33879313726874
C         8.38027901479811    4.38686695153877    2.98993395345585
H         7.92993706140195    4.45554812813319    2.01124919332429
C         7.63996475502703    3.92596572105576    4.06647968523651
H         6.61192077962748    3.62587974151902    3.92688527898527
C         8.20941244715429    3.83722181827184    5.32097987698093
H         7.62923701094411    3.44457283851061    6.14168174794583
C        10.09458496013317    1.27105568599167   10.18325736108649
C         7.58279206624900    1.81485127382240   10.64734729283718
C         8.34782278230628    1.40255729065663    8.18582867050472
Mn        8.86927272879108    2.41927174907191    9.56375522899482
S        11.87909688323904    4.07680273587210    6.99984286515376
O        10.91156194679788    0.56911878791732   10.57824767449557
O         6.74259611298428    1.47768761258326   11.35727327823818
O         8.03250024845910    0.78186057487053    7.27390894364590

