59
CSD_code = MAYJUT | q = 0 | S = 0 | Stoichiometry = C21H36AuP | MND = 2
Au        2.22700804824347    5.57387850244749    5.55801591897232
C         0.55985514951492    2.83103523719443    4.41187782773974
H        -0.21524385308801    3.57338194983769    4.17170514979697
C         0.35766503409158    1.59935563739472    3.53315825434295
H         0.47172707885404    1.85764519090539    2.47758940949646
H         1.10227930729930    0.84067808730595    3.78354086255165
C        -1.03562409894070    1.01924138912045    3.77146558600748
H        -1.17428905517457    0.13132140645460    3.15044287053672
H        -1.79005973101163    1.75344624949892    3.47813699609372
C        -1.22308159742914    0.66019964716641    5.24275726705260
H        -2.22816246632514    0.26514564577978    5.40219250428048
H        -0.51030972204215   -0.12107598547231    5.51827186731905
C        -0.99977731783285    1.88405154388283    6.12720930943549
H        -1.10969039681597    1.61038164018216    7.17828085188432
H        -1.75369002934298    2.64086105321585    5.89838829427112
C         0.39004077749468    2.46689140046725    5.88813748603659
H         1.14036251796835    1.72926070740175    6.18501404978830
H         0.53641922749607    3.35928222857183    6.50527399529932
C         3.46501971550391    2.45427483967476    4.40059801872002
H         3.02416512109735    1.72670450102100    5.09750897657335
C         3.90707297055295    1.70651554328465    3.14324773754282
H         3.05096539076778    1.25567494704387    2.63797333015258
H         4.38769189301248    2.39490132750922    2.44577929770739
C         4.90893319332811    0.61644071019135    3.52130605193364
H         4.43009489393348   -0.10443075921645    4.18904931305613
H         5.22294350068083    0.08081533982367    2.62265597977890
C         6.12294838729205    1.22378237113348    4.21764214511507
H         6.63408668728295    1.90060897518357    3.52880881685124
H         6.82565079344776    0.43516615975240    4.49334147217517
C         5.69398944199512    1.99631905506095    5.46166290371534
H         6.56369885244046    2.45374789247951    5.93678741461180
H         5.24586047602051    1.30575737541989    6.18066912848721
C         4.67841062474995    3.07514784911232    5.09818420798892
H         4.35268768608961    3.60113219479093    6.00072426782140
H         5.14830220073731    3.81215395512239    4.44195565522453
C         2.17975937937457    4.25522981694058    2.40897252782896
H         2.24463061097061    3.37027091312957    1.76514187893200
C         3.40943544735372    5.14297158344695    2.20118741745678
H         3.35913464571624    5.98176289113733    2.90362322432889
H         4.32349819651148    4.58594429278873    2.41968617082768
C         3.46665316981792    5.68099814738590    0.77530863214359
H         3.55331724031489    4.84754016701759    0.07280967335598
H         4.34964138691583    6.31203540796571    0.65683876290297
C         2.20614043353421    6.47954043453120    0.46425189108032
H         2.14694419687506    7.33829605049980    1.13632486207379
H         2.24255795342155    6.85510944641884   -0.56021987739933
C         0.97462765307672    5.60144464473716    0.65369145910646
H         0.06966541590412    6.17750152757618    0.45072453265204
H         1.00885584805047    4.77153668477458   -0.05745429963988
C         0.91374105907242    5.04517519396649    2.07426762024946
H         0.81158423648350    5.87053664303782    2.78683805900420
H         0.03132610734037    4.40789704112494    2.16514176922768
C         2.24270004793501    7.16612940061408    6.68775931554508
C         2.25384998471244    8.14672802252862    7.38695670909269
C         2.26959738275366    9.33120328951762    8.23253558560409
H         2.17004265298984   10.23265356227119    7.62463287482498
H         3.20797253862738    9.38713695915556    8.78777713488309
H         1.44382796479243    9.29883431760638    8.94608533287920
P         2.15044574556636    3.76522975308862    4.20036552468373

