69
CSD_code = MAYKON | q = 0 | S = 0 | Stoichiometry = C26H37MoO3PS | MND = 9
Mo        1.43658139816235    1.68494504625552    8.66866878693439
C         1.81514517624863    1.75099397612384    6.78690569448959
O         2.02015561627844    1.71789311978938    5.65545665028634
C        -0.19032643595424    1.59583868937798    7.63311753030505
O        -1.12474291404274    1.58008442957805    6.96296951525529
C         3.23053575200587    0.59686947925032    9.56077337221957
H         4.27194301504147    0.70287195040109    9.28575143416328
C         2.35486558330849   -0.40413575896550    9.09926387199280
H         2.59703481481670   -1.19068293106459    8.39613438664842
C         1.15441809807863   -0.31132257125480    9.85126076656308
H         0.34059098054945   -1.02768651487674    9.82062942964884
C         1.31677441758244    0.71326176908551   10.81137355387293
H         0.63634463033836    0.94190336961266   11.61704911177622
C         2.57934225579338    1.29404626584108   10.61796803944263
H         3.04625937722083    2.02333673162369   11.27198766483314
S         2.73960709107334    3.88886247949153    8.78557096253879
C         2.97322734500988    4.57953963102392    7.12915673974838
H         1.99029579336447    4.81064412145120    6.71464564347956
H         3.49667231391215    3.85944408418430    6.50836607809084
H         3.56661260769192    5.48508496356031    7.23119719051976
P         0.51813236429402    3.90737784209847    8.91538817349641
O         0.03980581145358    4.79674869708055    7.85273261169080
C         0.32749147858826    4.31806873058412   10.71306502830490
C        -0.55934165509101    3.48739317641957   11.42653630829717
C        -0.24602111129597    3.12698544641260   12.73140873172402
H        -0.91420237542145    2.46315921395187   13.25371894635566
C         0.90864494293943    3.56541148232455   13.36046818910849
C         1.60338279146914    4.58743954778190   12.72942522345321
H         2.41026839324846    5.07017405499838   13.25736030624891
C         1.31020312494977    5.01945069531550   11.44254071486474
C        -1.94235692026813    3.09509704677389   10.91466339525464
C        -2.27423532989008    3.73005831286342    9.56907689009825
H        -1.70419933896460    3.27716972711464    8.76029637658606
H        -2.07707792377500    4.80079688054822    9.57799125182262
H        -3.32814294865419    3.57866402388486    9.34064817144964
C        -2.96876313863486    3.64001279733910   11.92743715739137
H        -2.82888851472223    4.71009424748644   12.06495788441337
H        -2.88540378978389    3.15748530860652   12.89676548034723
H        -3.97667469185894    3.47024784924843   11.55538159802463
C        -2.11213610947171    1.57666468792410   10.79519510978642
H        -3.13322846000299    1.34545473316642   10.50016408256561
H        -1.91232752867504    1.07579464090361   11.73957741671717
H        -1.44210162829213    1.17842951539425   10.03355880728670
C         1.37264467922362    3.04874964422790   14.71156001436374
C         0.49805642860961    1.90719352885748   15.23757761249327
H         0.91048979517129    1.53696110373937   16.17391711162975
H         0.46955595374731    1.07764501602625   14.53398523757052
H        -0.51682503366378    2.24638664462112   15.43230602591089
C         1.33472892785432    4.19411419566791   15.73290743811096
H         2.02558930125962    4.98851534983597   15.46402107349691
H         1.60952253725112    3.82538052132530   16.71885284325759
H         0.33347183676963    4.61649579049575   15.78836424834933
C         2.80855369925336    2.52314562552951   14.57178524785932
H         3.47877557024620    3.29334933145185   14.19911795692166
H         2.83639706037912    1.68083707248808   13.88258713552848
H         3.18016271154027    2.18703970639821   15.53748035651583
C         1.89929390922534    6.36266013107863   11.02165252576259
C         1.39258713205843    6.84708710898106    9.66607847919636
H         1.66796596619422    7.89116446507388    9.52631445985015
H         0.30890973578726    6.77132436970729    9.60947989424159
H         1.82088259460902    6.28563946458233    8.84406317071416
C         3.43219249234687    6.36952966849804   11.03164148123129
H         3.82824784925137    5.62515218152175   10.34559018889944
H         3.82423677046800    6.16208236013437   12.02398031251481
H         3.79440392528274    7.34862830314133   10.72597343737580
C         1.39198457916978    7.38314427667195   12.06183697729027
H         1.74076567769499    8.37938673418824   11.79879040898067
H         1.74443880551335    7.15530429194901   13.06364318227815
H         0.30410273614499    7.39301212509843   12.07858890156803

