69
CSD_code = MAYKED | q = 0 | S = 0 | Stoichiometry = C26H37MoO3PS | MND = 9
Mo        3.43271057382299    1.59198883124368    2.76543948713235
P         1.14172059128876    1.02752889493135    3.20079450342503
S         2.30183746672977   -0.28505858236955    4.20886675924298
O         2.53900250036075    1.98332835621056   -0.15574910091336
O         4.27886083493609   -0.71252104337491    0.91665342899126
O         0.16483569637320    0.18120799574427    2.23514113566911
C         2.85611305697323    1.88090856995943    0.95091620149838
C         3.94844968836230    0.12245370066717    1.63618986353757
C         0.68909680153047   -0.80959232464052    1.36651551933800
H         1.16678673830754   -0.35137393760647    0.49565723668412
H        -0.15773431809336   -1.41461126165941    1.04428410297474
H         1.41609721584207   -1.44257226262478    1.88873050858274
C         5.31607813778958    1.80658196756128    4.04279141797785
H         6.02792495154937    1.03221660436549    4.29362043445601
C         5.42331496145079    2.70996340619844    2.95981596679477
H         6.25336468752050    2.77773617461972    2.26649116962552
C         4.39314699244643    3.68123525270007    3.10917429205357
H         4.30569007593229    4.58841537888936    2.52237180633593
C         3.66952625069273    3.37943884860228    4.28041448561431
H         2.89756968301548    3.98985829932718    4.72920718430667
C         4.23220236644930    2.22182767035102    4.84995232846055
H         3.96862868679002    1.80450020914816    5.81573413991981
C         0.11993451003856    1.98641730340712    4.37503573541340
C         0.09501938633714    3.38203067442976    4.14316350003922
C         0.17744587687609    4.23753032968743    5.23084815708327
H         0.21101922643967    5.30024984952697    5.05033155022952
C         0.25685900671750    3.77784323466972    6.53926808188565
C         0.00273335240829    2.43151729572740    6.73570497107186
H        -0.09535679833117    2.05815354339449    7.74001173210134
C        -0.10736784290233    1.52206165189336    5.68891680457059
C        -0.18442553806815    4.02618796542919    2.78713044311025
C         0.98522953284863    4.89823057596805    2.32017550736605
H         1.85003851635597    4.27314848899497    2.10208993325465
H         1.26261554975961    5.63467021357277    3.07041744201881
H         0.71006864528369    5.42606167771006    1.40991837722206
C        -0.50492337253846    3.01650581871696    1.68870722181667
H        -0.91634500317931    3.53793000941691    0.82622834338909
H        -1.23730606996795    2.28743614969655    2.02825343272610
H         0.38914566478602    2.49804651484379    1.35077355046248
C        -1.44072755951524    4.90354399685729    2.95728172078671
H        -1.73475190348076    5.31293944266338    1.99342133896758
H        -1.27514622004505    5.73613259823737    3.63414929041866
H        -2.26494955678950    4.30797846194837    3.34387693649837
C         0.52103388272738    4.75223588865753    7.67409803490018
C        -0.64910111183876    5.74153369825077    7.76652694717092
H        -0.74735530813210    6.32518597485511    6.85513597741187
H        -0.49356476191128    6.42805532080885    8.59589281210520
H        -1.58219414662731    5.20653567184733    7.93045334308465
C         1.82410823143521    5.51250579942035    7.38751327550831
H         2.65852723522377    4.81723818132059    7.31432093531736
H         2.03272527930854    6.21339142101755    8.19285958537480
H         1.76328741847457    6.07584398446282    6.45996275803577
C         0.67043953789781    4.04980978464569    9.02633963669554
H        -0.26105361083546    3.57829413016001    9.33067832357561
H         0.93635082192131    4.78057459956745    9.78733013977540
H         1.45625879089327    3.29843875193880    8.99070971446301
C        -0.64638155750310    0.14210163173691    6.05593394355546
C        -1.99966601341996    0.38064403157667    6.75748754901763
H        -2.46156471478439   -0.57587048783873    6.99165964659019
H        -2.66988871088677    0.93520867918937    6.10346808170533
H        -1.89304553757971    0.93529728242246    7.68485093519733
C         0.29244705264935   -0.60333519223285    7.01119704942029
H        -0.14230447915211   -1.56453180694329    7.27523670880542
H         0.45959443746387   -0.04269658075681    7.92727462993189
H         1.25282896504952   -0.78178699970160    6.53438176990904
C        -0.94244847090880   -0.74478024400913    4.84850112098723
H        -0.03110311712451   -1.13096767260328    4.40269553364138
H        -1.51099349664827   -0.19906645538242    4.09829398321139
H        -1.53266965880060   -1.60213593741801    5.16718062248251

