101
CSD_code = MAYMEF | q = 0 | S = 0 | Stoichiometry = C38H40N2O4S16Zn | MND = 6
Zn        0.71188032533350    2.33517036472725   13.37263110403717
S        -3.57828565965671    4.49986975571794   15.17714244431775
S        -6.53673689199549    4.30726689635485   16.65990358369535
S        -2.97064893823041    1.82912705392699   16.38913005059753
S        -5.56552588430202    1.68399515783598   17.85538647515978
S        -1.95988508942854   -0.81109319786717   17.76949382289952
S        -4.53090986200355   -1.11449040942349   19.24348522841953
S        -0.79212551727139   -3.31596518864907   19.02263433598167
S        -3.55972240922671   -3.63942584343215   20.65256853791747
N         1.04229044304590    4.04022874388738   12.18570969941216
O        -1.22183163576444    2.38171475583152   12.85908759216208
O         0.23003364190681    3.55379147798097   14.88240760312953
C         0.32842824644019    4.24930241502218   11.08730649886970
H        -0.24231819597410    3.40323152776445   10.73453604217108
C         0.29941210931417    5.46882774317119   10.43240034152662
H        -0.31153886844640    5.59748712191246    9.55241418597885
C         1.05980837765195    6.51425253427909   10.93193547143026
H         1.06453268703775    7.47820692297765   10.44462854607216
C         1.82414542307134    6.28620680168978   12.06505139251544
H         2.44164655401599    7.06566926231087   12.48325638515641
C         1.78007796135460    5.03632503913428   12.65927997652969
H         2.34644657674415    4.81209069681938   13.55078817526513
C        -0.90457063209500    4.94273666717759   16.42596961467612
H         0.11156021224156    5.09915175809521   16.77705918467353
H        -1.48991764121697    4.48253639164519   17.21972261328549
H        -1.36217948311975    5.89700543194252   16.17622507865276
C        -0.87079217531305    4.03521156062836   15.21531851985730
C        -2.08198438043143    3.77638709356707   14.53987516532483
C        -2.18557255287743    2.97457384264440   13.38463835575333
C        -3.54586633426581    2.80582701983929   12.74314122189222
H        -3.43386885072940    2.23932672465364   11.82264443641541
H        -3.99408879098264    3.77371460327742   12.53129612853303
H        -4.21322457005396    2.26658780810155   13.41328497184540
C        -6.66067363532588    4.88063445761482   18.38556029837742
H        -7.46520753509346    5.60739131349798   18.40892473430907
H        -5.72300604126420    5.34424548657978   18.67600047339032
H        -6.89445038751513    4.03591889719896   19.02660794002452
C        -5.27104170109841    3.11003979375778   16.84284806518585
C        -4.09546650181328    3.17050063419963   16.19869119693619
C        -3.99497566316653    0.96716200438001   17.54275379142638
C        -3.56031707324012   -0.16536361413646   18.11990910208247
C        -5.15446602223155   -3.16782116473186   21.38088888702314
H        -5.38765602916759   -3.94076738242948   22.10614386366394
H        -5.91577477580239   -3.13681192733422   20.60723699636011
H        -5.06480178942222   -2.20440011719769   21.87311573825751
C        -2.11924090943353   -2.17869705292941   18.87897771260982
C        -3.27988538728462   -2.31524311931274   19.54205380227290
C         0.37878189671868   -2.26938589591145   19.95058240831888
H         1.31683956083780   -2.81216886804977   19.98913083323648
H        -0.00597238468823   -2.10822334365153   20.95277715930000
H         0.50195019686545   -1.32739890007305   19.42513050340035
S         5.00209073192491    0.17061192205726   11.56809391820117
S         7.96106788970100    0.36339129790265   10.08645998586375
S         4.39497286660543    2.84162548620589   10.35639709999004
S         6.99042980853318    2.98695502882986    8.89117760623402
S         3.38519399122104    5.48264399149018    8.97655051795622
S         5.95691839936625    5.78605327607827    7.50378233413129
S         2.21864624286170    7.98843519288569    7.72410422629297
S         4.98702232355983    8.31193642867798    6.09551554515328
N         0.38142611468678    0.63001193729356   14.55940554533521
O         2.64557394017683    2.28868256895474   13.88615691492713
O         1.19375493585783    1.11662307370466   11.86278361687232
C         1.09560777772176    0.42048068873016   15.65751709030055
H         1.66669672871408    1.26631411547530   16.01030368352860
C         1.12449640343833   -0.79919938780222   16.31213929338877
H         1.73569130512363   -0.92824456513620   17.19189717121799
C         0.36361387709489   -1.84428948156065   15.81264341935029
H         0.35877659571705   -2.80833651785417   16.29976423148619
C        -0.40104283936954   -1.61576905776850   14.67984009627743
H        -1.01890345518607   -2.39495920518553   14.26165737292296
C        -0.35680863384790   -0.36577032542171   14.08586912514439
H        -0.92339082960218   -0.14119157467100   13.19458434626602
C         2.32845060727770   -0.27210147154650   10.31908885271964
H         1.31233747635014   -0.42846899565232    9.96792534725839
H         2.91385926894892    0.18815877668428    9.52542143639923
H         2.78602090910917   -1.22640861163112   10.56877521999384
C         2.29461631148174    0.63532795976754   11.52981034247238
C         3.50578162081040    0.89411050692450   12.20531323671321
C         3.60932549834262    1.69582387423716   13.36062498896678
C         4.96960379943898    1.86456956281281   14.00215624858058
H         4.85757021920216    2.43098709059520   14.92269990758919
H         5.41785347552447    0.89668014302032   14.21391982203489
H         5.63696514774941    2.40389745726299   13.33207951444330
C         8.08541031547625   -0.20977634049778    8.36076597215468
H         8.88987889547904   -0.93660957975815    8.33752355799655
H         7.14777349541234   -0.67325752116000    8.07002006603469
H         8.31943998071897    0.63499686955698    7.71988670081178
C         6.69550035356886    1.56072758794765    9.90331814678410
C         5.51967548991835    1.50017916403741   10.54701009456734
C         5.41985906925231    3.70389047514423    9.20349392336392
C         4.98564195762495    4.83671542093167    8.62659311879752
C         6.58167065053166    7.83994973743717    5.36722794653160
H         6.81537467170663    8.61318232856219    4.64244408680388
H         7.34282281206964    7.80813820066466    6.14100178255219
H         6.49162142848925    6.87684579564949    4.87445225601613
C         3.54536980096446    6.85071691778553    7.86775395672670
C         4.70633354975945    6.98727010214402    7.20523721023692
C         1.04752179000603    6.94238928498170    6.79582293207182
H         0.10960940897155    7.48542755037291    6.75733926645864
H         1.43230192046827    6.78135953539786    5.79361664403905
H         0.92407188235061    6.00031354575111    7.32104798759741

