123
CSD_code = MAYMAA | q = 0 | S = 0 | Stoichiometry = C44H73MoN5 | MND = 5
Mo       -4.48987364361232   -1.49882290585195   -1.43238722414469
N        -5.08447714888758   -2.99322153428391   -2.14458480503451
N        -2.74499449702909   -1.46832957219399   -1.54531680149930
N        -6.40711588614696   -0.42244192363049   -1.02481885480707
N        -4.95746398700350    0.23773760877854   -2.51432936972219
N        -7.05566871206549    1.41094950735459   -2.44739119720320
C        -4.53600638520068   -1.91655998547669    0.71254762474656
H        -4.60995160500121   -0.96053215406666    1.25478523085720
H        -3.65187772964776   -2.42366926135620    1.11080756463094
H        -5.39185096415603   -2.51438032776415    1.03612925310164
C        -6.16665664825125    0.43254163406853   -1.99478376407768
C        -7.52151989150833    2.38187233478845   -1.46424663439157
H        -7.26297512998628    1.93936380308401   -0.49463633214199
C        -9.02569295243775    2.65471842494166   -1.46486757833231
H        -9.59699075608398    1.73409063720311   -1.38087213980776
H        -9.33546844496155    3.18214909718487   -2.36235584731051
H        -9.26612700104332    3.28043331900362   -0.60791752205439
C        -6.75106371711340    3.70899688705949   -1.55688596946618
H        -5.68273280029989    3.52056247784180   -1.63377183687929
H        -6.93104911815426    4.29429735399524   -0.65783998223749
H        -7.06602257669883    4.29729606325016   -2.41301630182411
C        -7.43058011329790    1.35741789213604   -3.85649024174279
H        -6.67375050351079    0.71545992371971   -4.32544702858416
C        -7.42359812349024    2.70086610723446   -4.58620924635911
H        -6.47695790883342    3.21969988623497   -4.45949443648490
H        -8.22698477311621    3.34567396520795   -4.24198208265785
H        -7.57019004585100    2.52099057060488   -5.64911123739892
C        -8.78356684497219    0.65868339105689   -4.06078476446811
H        -8.80139869521041   -0.28823954937451   -3.52649759707969
H        -8.92996719373091    0.45701343684309   -5.11953452737405
H        -9.60908157314707    1.27422680877649   -3.71724099130052
C        -5.22122138521705   -4.13462790120784   -2.83595103453822
C        -4.90817437776083   -5.38813180357280   -2.24597119424245
C        -5.07821478280360   -6.54785901905304   -2.97697351559117
H        -4.85206219432698   -7.50188445412826   -2.52522624444509
C        -5.52910377923051   -6.51477658330169   -4.28576654503486
H        -5.64705220237698   -7.43160955915615   -4.84446425324750
C        -5.83279098316768   -5.29893313428943   -4.86914818519078
H        -6.18974892012528   -5.27958996543808   -5.88922786926081
C        -5.69337108055314   -4.11169795188261   -4.17255702200007
C        -4.44442080650933   -5.42397106245278   -0.80889426719323
H        -4.01643914804167   -4.43394979998937   -0.58208636523845
C        -3.37799294015314   -6.48635548374945   -0.54266046927906
H        -2.94884754137159   -6.33720263438020    0.44613313758170
H        -2.58038444626647   -6.42325371356412   -1.27821096317555
H        -3.80225069930648   -7.48743048269512   -0.57432829919522
C        -5.65233224017344   -5.65025365579090    0.10672146670658
H        -5.35118137075359   -5.61985746159414    1.15197433529907
H        -6.10420734153291   -6.61938103811941   -0.09790897750181
H        -6.40112443098572   -4.88069316729118   -0.06568494546401
C        -6.07127878116469   -2.80048260697075   -4.82418365465061
H        -5.89586564391154   -1.99508674069159   -4.09005585252823
C        -5.20292925114066   -2.52061828500637   -6.05219949152442
H        -5.48724512475430   -1.57495513853867   -6.51206947216530
H        -5.32060838916098   -3.30644025624443   -6.79492818507809
H        -4.15574636124879   -2.46790061523402   -5.76726559258530
C        -7.55331237780409   -2.79637733133602   -5.20930370951281
H        -7.83671023321967   -1.82957650311432   -5.62110762290346
H        -8.17503538903985   -3.00092135650398   -4.33991703528202
H        -7.75871090597551   -3.55861734956670   -5.95730671012686
C        -1.43052406641036   -1.31309800227928   -1.75466782563695
C        -0.63599685280645   -0.53288602104893   -0.87596100930778
C         0.70259931538366   -0.33451795562017   -1.16167204953223
H         1.31350598910993    0.24894953865998   -0.48880688241464
C         1.27666220066716   -0.87270326303846   -2.29881719979080
H         2.32154144763812   -0.70040031309058   -2.51212406994724
C         0.51337063672695   -1.65220163158844   -3.15290311554866
H         0.98345317577630   -2.08667059057101   -4.02188425409276
C        -0.82353426560843   -1.89253447153633   -2.90148342938220
C        -1.25586466281793    0.00839800171209    0.39011643682989
H        -2.35110326955806   -0.01237396844970    0.25633349559564
C        -0.83536314125277    1.44525834427036    0.69939659575772
H        -0.98379189108258    2.08580558397954   -0.16697354685290
H         0.21161478758880    1.49447389395935    0.98890058168383
H        -1.42841040925626    1.83628894420761    1.52431753944059
C        -0.90327933531540   -0.91594915673473    1.55947348004086
H        -1.39315013455869   -0.58337589198619    2.47281231326706
H         0.17261441914654   -0.92199032889321    1.72419176204343
H        -1.22255852282672   -1.93272716166504    1.34011595713147
C        -1.65379800397521   -2.80914874816788   -3.76837904918795
H        -2.70117886923435   -2.47459031141466   -3.70707803384985
C        -1.60347049402242   -4.21717455852199   -3.16552241500669
H        -2.23684125321788   -4.89531142965675   -3.73329712179612
H        -1.96824042746289   -4.17904012792912   -2.14059104570473
H        -0.58267830545595   -4.59611410949237   -3.16760642319234
C        -1.22477272593272   -2.83553525860459   -5.23347100130958
H        -1.94343739222484   -3.40989099190060   -5.81461174118436
H        -0.25322566989599   -3.31035485472396   -5.34967820732966
H        -1.17163263975562   -1.82827517322256   -5.64246944898606
C        -7.75378295695307   -0.72552157514997   -0.59083017758062
H        -8.46914741596775   -0.09060750169431   -1.13386381840134
C        -7.93512246291565   -0.49652340505522    0.91442653301007
H        -7.22193781246057   -1.12079310451132    1.45478525768830
H        -7.72174227319716    0.54655395493501    1.16335191617361
C        -9.35495809498843   -0.85353205060370    1.34314529096248
H       -10.06630842878465   -0.20010857391850    0.83083628957234
H        -9.46720878255138   -0.68920102136409    2.41707018304185
C        -9.66720068587504   -2.30760815268339    1.00297656369794
H        -8.99352555392370   -2.96215049106638    1.56023086770435
H       -10.69030608898713   -2.54806705747341    1.29978328885269
C        -9.48613711074815   -2.55334765105122   -0.49181525444371
H       -10.20757919407223   -1.94813014752052   -1.04812266594788
H        -9.68178713312583   -3.60199034759282   -0.72483467688167
C        -8.07065355143749   -2.18776713420155   -0.92520285369334
H        -7.94670336250397   -2.34681465227782   -2.00001113332036
H        -7.34486524139323   -2.82571547373513   -0.41594429689627
C        -4.23040759248507    1.24758442920713   -3.25055927085555
H        -4.90842056655831    2.05765555701208   -3.55415969897325
C        -3.13872754669175    1.84374319605695   -2.35036166070193
H        -2.49261852392559    1.02996183392770   -2.01549958526241
H        -3.60215065840742    2.30130027959910   -1.46892474716726
C        -2.30081918190016    2.86809464469976   -3.10754917778598
H        -2.93348896205966    3.69979273906060   -3.43134008082040
H        -1.52990340654346    3.27367578575492   -2.44887320863740
C        -1.65447785895085    2.21418990594584   -4.32424301892065
H        -0.99436265503081    1.41010136380676   -3.99126309636482
H        -1.05209247159955    2.94595370470822   -4.86650930145578
C        -2.72953093349185    1.64031748930644   -5.24120808398417
H        -3.36236687877457    2.45198299506098   -5.61139005670079
H        -2.26618470784866    1.15978786217651   -6.10501743723073
C        -3.58552142570727    0.62520824551707   -4.49119698956179
H        -4.36308077659015    0.23089257183507   -5.14957635151538
H        -2.96377084430585   -0.21043706690976   -4.16075666090383

