73
CSD_code = MAYMOO | q = 1 | S = 0 | Stoichiometry = C34H32Cl2CoP2S2(1+) | MND = 6
Co        0.81568338103831    3.41993533576142    6.61015155744443
Cl       -0.76359842959099    4.83876005318294    6.11035663086389
Cl        0.05448027082614    2.89110390646380    8.58306591908672
S         2.39586821225642    1.82726095974886    7.01214634628004
S         1.89978433051072    4.04051904023297    4.68556334991271
P        -0.42339187237197    1.87401238392734    5.57366481599973
P         1.95083160372423    5.05553948413053    7.58443847877135
C         0.79605735416676    0.53875992209830    5.15515494920929
C         1.65372757964528    0.27924683801326    6.37603540065436
C         3.45243181097419    3.16021413340802    4.81593582657838
C         3.63126908084678    2.16047507687943    5.76421389237713
C         4.82753873695626    1.45995384085253    5.81904773590840
C         5.83712429894421    1.74399273864187    4.91754171978803
C         5.65299474014408    2.72857676590183    3.95875693613144
C         4.46105439595296    3.42790176237232    3.89929085330594
C         2.43706914597225    5.78859506729383    4.89899089705449
C         2.15731285789978    6.35499475699969    6.28264593005150
C        -1.72272331583314    1.09123823341732    6.56010063771717
C        -2.62136184951345    1.94300235048692    7.20444835770198
C        -3.64993842846867    1.42025442779325    7.96398358087885
C        -3.78730623428353    0.04719848028000    8.09321441094028
C        -2.89477152300834   -0.80016619385040    7.45882295499047
C        -1.86174582073209   -0.28628357037545    6.69403686272872
C        -1.20634919415563    2.25676337747309    3.98351544674527
C        -2.58359150935264    2.44997057518060    3.91602934497460
C        -3.17776891583696    2.78626250321213    2.71332395350625
C        -2.40727709716808    2.94019813752405    1.57306223941288
C        -1.03498973985128    2.75933131032742    1.63781803187681
C        -0.43331025255530    2.42647897009467    2.83639844238071
C         1.37197033969329    6.03109783885076    8.99044618168539
C         0.01311822145252    6.15683775570145    9.25666008985942
C        -0.40643074300016    6.94806340064746   10.31104921901211
C         0.52154806257042    7.61323567450198   11.09518664394148
C         1.87607753271730    7.49078508171513   10.82639443732498
C         2.30728817204879    6.70063138208398    9.77791021492209
C         3.61746093941665    4.52859580369227    8.06946674685974
C         3.68405081447245    3.68455195227579    9.17917173601684
C         4.89710267098841    3.16062268440962    9.58034890103989
C         6.04967598298423    3.46158698514828    8.86982193180301
C         5.98752830156910    4.29722092848232    7.76736447937200
C         4.77589998971413    4.83041957488494    7.36275341758373
H         0.28293823916498   -0.36640168702245    4.82187101481734
H         1.41921110782701    0.89167973175187    4.32723832912664
H         2.47336655910812   -0.41197820673628    6.18001519939190
H         1.05670108955070   -0.08307447236960    7.21470120142436
H         4.96146161160761    0.70528566296767    6.57845019276046
H         6.76671026488294    1.19966286892176    4.96474336101504
H         6.43529358131286    2.94871721154379    3.24955579608561
H         4.30692328410304    4.17789022263205    3.13806767426251
H         3.49588506282826    5.80146086484812    4.64739316704043
H         1.88102035948678    6.33180296173850    4.13489344073726
H         1.20094663604466    6.88865635066871    6.28530848880741
H         2.93779003476112    7.05452582443854    6.59585134653859
H        -2.49820187659496    3.01329899985308    7.11740915601413
H        -4.34036961842069    2.08390182232292    8.46136065090606
H        -4.58633710450347   -0.36267719054477    8.69147882006318
H        -2.99866072106235   -1.86997763050692    7.55955585153716
H        -1.18080920045026   -0.96937020625677    6.20867433855534
H        -3.18999743375934    2.33390738694672    4.80183999694942
H        -4.24623547739903    2.93098148829226    2.66858139690462
H        -2.87267158674749    3.20483934424210    0.63626802254658
H        -0.43010839596967    2.88202320905433    0.75207837804220
H         0.64001280307319    2.30246087876002    2.87105967330444
H        -0.70679912590725    5.63221293357519    8.64797222633271
H        -1.46046059008979    7.04238831209772   10.52216433977149
H         0.19145672873781    8.22660741368856   11.91955073795119
H         2.59943362047311    8.00966821971393   11.43695666676902
H         3.36426911402356    6.59862605507050    9.57337933271515
H         2.77399502122705    3.45296103757955    9.71702468084509
H         4.94561669231756    2.51661301515575   10.44478624229738
H         6.99767729991285    3.04922004329157    9.17902053746766
H         6.88601652513308    4.53903854488256    7.21965891010693
H         4.74913159354357    5.49100925959504    6.50866132612857

