42
CSD_code = MAYNIM | q = 0 | S = 0 | Stoichiometry = C20H12ClF3N2O2SZn | MND = 5
Zn        0.94072077953148    7.03376858093880    4.64268677108922
Cl       -0.31858004758695    7.71638310429003    3.03171946558807
N         1.85256658448430    8.90418046521650    5.10749272589462
C         2.87208328807388    9.46586708179106    4.50125767600858
H         3.51023821096319    8.80322201188222    3.93528493147816
C         3.12603664382254   10.83991509806160    4.57124937449383
H         3.97658273362065   11.25238433455366    4.05227738838669
C         2.27980963535652   11.64218158795525    5.29794091743440
H         2.44214519991980   12.70797808168158    5.37050128707167
C         1.17913879761903   11.06240810236159    5.95161177705956
C         1.01145097841131    9.66772938225081    5.81773857257827
C        -0.10745633987081    9.02676620166837    6.44144319431527
C        -1.02679741816636    9.79633532352918    7.18509594549746
C        -2.11693531832717    9.11809675839989    7.75699652189426
H        -2.84711305542507    9.67064413988344    8.33064295771909
C        -2.23604678056386    7.76237631538321    7.56868116012309
H        -3.06210173507558    7.21149023467237    7.98937605127664
C        -1.27030669547458    7.09048049750456    6.81100700791233
H        -1.33113451890055    6.02690768049033    6.63462348607660
N        -0.24386846044398    7.70496466823177    6.27144242073130
C        -0.82006691700244   11.20058078501106    7.30988784738935
H        -1.53535461976741   11.77115903875804    7.88374287233303
C         0.23711815055541   11.80761600060953    6.71802531149342
H         0.38453247903427   12.87373158210958    6.80847216504397
S         5.06235144762853    6.51921812047401    2.42541743386268
C         6.27838075937745    5.63394395922671    1.61063194078720
H         7.07038981629057    6.15624219815094    1.11122004619387
C         6.08792202874241    4.28666065135131    1.69226152422930
H         6.74280169411667    3.56305648209815    1.24079501045171
C         4.94083325564254    3.94887988009449    2.42959773844941
H         4.62435245626492    2.93618677182074    2.59886043002898
C         4.27042480572042    5.04939954729581    2.90045822026341
C         3.05092372916824    5.20168198329806    3.68022893751506
O         2.67886731430075    6.38244766407904    3.90263309358187
C         2.38685048410246    4.03994546671441    4.13850591546371
H         2.80901393923876    3.07630707443662    3.91759768221097
C         1.20586426375264    4.11437772948492    4.84414321571027
O         0.54538272979250    5.12551988510276    5.18686130741807
C         0.57497972127782    2.78265799493448    5.31346078793049
F         0.47063247617321    2.74845272823117    6.65356275312396
F        -0.66314476909858    2.61932229325009    4.83033307764293
F         1.26881227272203    1.68823251272333    4.96353305624787

