72
CSD_code = MAYQEJ | q = 1 | S = 0 | Stoichiometry = C25H36BN6RuS3(1+) | MND = 9
Ru        1.94488971148151   -2.04305178244808    8.62272090740866
S         1.25536673061500    0.20460319161899    7.98599253195081
N        -1.20502382811269    0.27202654179285    9.20364143270231
C         0.07962933728331    0.65101889121373    9.14617121855833
N         0.31920361148817    1.53693771392540   10.13108695287126
C         1.61121730622120    2.07146701668368   10.48175080630437
H         1.48349226005926    3.09945649156984   10.82632090562138
H         2.22719561863953    2.06757670237033    9.57945989922990
C         2.24578014557201    1.20540133564343   11.56591289829849
H         1.67305358565204    1.26089252431093   12.48812785655269
H         3.26001078654297    1.53907363099022   11.76374390125345
H         2.26301714102615    0.16629086438570   11.23757812053867
C        -0.83215640684837    1.70212030478536   10.84539333691008
H        -0.88990312809611    2.35793877026687   11.68883616470375
C        -1.77354137080328    0.91926860549063   10.26627813659919
H        -2.80115439627698    0.77037540108561   10.52203030967404
S         0.28356557190202   -3.02545174765294    7.11944537300445
N        -1.42924986526755   -0.86664317667537    6.92850751752011
C        -0.58705970611047   -1.75516000479763    6.37571109475924
N        -0.52022731612075   -1.52853491266212    5.04872213644560
C         0.18787979459299   -2.33826665471329    4.08991384961541
H         1.04289614959968   -2.78489786615584    4.60210409719808
H         0.54091607810187   -1.68600750726932    3.28866373807445
C        -0.71203779503676   -3.43696238592042    3.53419950740510
H        -1.04011022800620   -4.09230106131779    4.33732383538450
H        -0.16271067649490   -4.02638838426919    2.80642224972757
H        -1.58614730899264   -3.01053069841086    3.04816993766858
C        -1.31981827446362   -0.46120312271898    4.75714549207519
H        -1.42660387633636   -0.08472584731276    3.76131116201265
C        -1.87198435631620   -0.05030897937120    5.92303220167083
H        -2.54799366915590    0.75441880826570    6.12005624763085
S         0.35788806245877   -2.08930834999966   10.47853758024028
N        -1.99425023703079   -2.13008433774532    9.04456225846630
C        -1.09410863069737   -2.72969470563942    9.83798160654417
N        -1.53685270309504   -3.96251988411576   10.14992012583017
C        -0.79359419955042   -4.95971785967706   10.87943365417894
H        -1.49942620773928   -5.58882651438134   11.42470526301260
H        -0.14898792227910   -4.44105931518981   11.59261085791300
C         0.04329370087393   -5.78910036469312    9.91018228407964
H        -0.59531498601722   -6.36529954430376    9.24561916254171
H         0.68364739042352   -6.47190966225334   10.46022915701837
H         0.65952184647477   -5.12727041250239    9.30137794557013
C        -2.72914956335937   -4.16081620972525    9.51627143679718
H        -3.27677308530368   -5.07554615703057    9.60660559703413
C        -3.00886570546670   -3.02425846337444    8.83527372569750
H        -3.84826734151238   -2.77607924984070    8.22098219625361
C         3.33161761095843   -3.72883605102481    8.00701900233595
H         3.12413311406460   -4.64109232753778    7.45495206673789
C         3.27862352794563   -3.74372964279824    9.40976464167104
H         3.05218807957994   -4.66543125731460    9.93454112729490
C         3.62879962217419   -2.58975066451304   10.15941288857811
C         3.64977338599911   -2.64541458660273   11.65553877485359
H         4.18997900494150   -3.53027887354352   11.98885881792003
H         2.63247069734129   -2.70849387194437   12.04592321047353
H         4.12341493513521   -1.76145892694711   12.07550237114044
C         4.01035152703807   -1.43010242835708    9.45991138475148
H         4.35259235258313   -0.55896060494118   10.00722256986729
C         4.05394880127534   -1.41992869143902    8.04681959911523
H         4.40647419551906   -0.52765857417566    7.54277110125359
C         3.73384112533393   -2.56701049888607    7.29547760422504
C         3.91017613016382   -2.61406584110367    5.79739335995119
H         3.26672295962394   -3.41299263375190    5.40875891558465
C         5.36632622874542   -2.97606937434285    5.48328935228861
H         6.04038277194622   -2.21949776606326    5.87926295672779
H         5.50872410194926   -3.03644996656208    4.40771062163371
H         5.62940289070985   -3.93635238208712    5.92142586675255
C         3.52059698461244   -1.29663133227241    5.12348176302901
H         2.58045215641276   -0.91943697889031    5.52813416568665
H         3.40873500663437   -1.44636280356039    4.05283426849870
H         4.28551768452911   -0.53911666197229    5.27382218405249
B        -1.99440671914253   -0.74493228399819    8.36083152521695
H        -3.11759022062393   -0.37258660763734    8.28277318977171

