90
CSD_code = MAYSOU | q = 0 | S = 0 | Stoichiometry = C27H58NiP2Si2 | MND = 4
Ni        0.16304856293005    1.37891104065753    3.49783694486779
P        -1.22277239745122    0.21785398595933    4.87279119457591
P         1.30341139913142   -0.56950456441316    3.51945277071691
Si       -1.67900518742245    4.36576816305001    2.87750537466632
Si        5.07038095222472    2.88227481758282    1.59701134593887
C        -0.03308038860522   -1.22140568094551    4.66606209129620
H        -0.53587481257618   -2.07953956965110    4.22048463520830
H         0.38701752571197   -1.51452295679721    5.62817812590903
C        -0.22007184348872    3.20629691987534    2.82735870134705
C         0.95670971268462    2.89584757432877    2.50642384778149
C         2.22768588027902    3.01722458800206    1.88729425830028
H         2.19819243275565    3.46669978925857    0.89931023394396
C         3.39648392397174    2.63913842465153    2.42345729018762
H         3.35558230158920    2.18209578275420    3.40801650762134
C        -2.86343928387173   -0.72455747277510    5.16398863312996
C        -0.71251976430139    1.02926046902297    6.51998933910906
C         2.81520362292460   -1.57367265470919    4.11504007949827
C         0.80343081262109   -1.21693319960317    1.79746457836366
C        -1.81421059581717    5.19742175468861    1.16461140682825
H        -2.65135836787076    5.88834027254685    1.13223571335396
H        -1.95978396452156    4.46372969080349    0.37807735810895
H        -0.91445337153615    5.75713119231586    0.92961884855214
C        -3.27178168888964    3.37575976734490    3.25885307703835
H        -3.97056608633936    3.40252084992302    2.42774339638151
H        -3.78770078143094    3.75597751332943    4.13612368091641
H        -3.02199417515117    2.33275694231177    3.44500418738099
C        -1.37501024489233    5.70677617927746    4.20393160175857
H        -1.27240336056649    5.28143421921077    5.19708716093028
H        -2.19712121417991    6.41609564312729    4.23203878104601
H        -0.46672485766625    6.26201693902740    3.99080270804023
C         6.22609883835987    1.41998864496511    2.01646084934323
H         6.22602276820065    1.20562036904690    3.08076157535944
H         7.24943684206193    1.64447873200549    1.73061318286323
H         5.93531970617023    0.51234748829093    1.49657579640718
C         5.87493154222241    4.49489724519004    2.23306741269471
H         5.24193041013851    5.35522844024457    2.03742419273496
H         6.83250717882858    4.67405334970922    1.75298065751659
H         6.04761246423823    4.45360387091527    3.30428974978391
C         4.86321541129829    2.98753536492888   -0.29761972450736
H         4.32791618827905    3.88653148366451   -0.58748251966094
H         4.31057904399528    2.13625374528749   -0.68400576216266
H         5.82662213674788    3.00811159341314   -0.79842266886973
C        -3.38041825174244   -1.12967400616947    3.77931752775827
H        -3.37424970276781   -0.27785871901407    3.10073986512158
H        -4.40363898621958   -1.49733570002447    3.85303712066513
H        -2.78028848925397   -1.92959583427913    3.35044365627554
C        -3.90387332615536    0.20931291789050    5.78200417811455
H        -3.93139523393802    1.15958845430000    5.25389616378830
H        -3.69987388976180    0.39004588316106    6.83336764618918
H        -4.89346052949950   -0.24326874305946    5.71390578755798
C        -2.74856834426039   -1.98364179583978    6.02329319351934
H        -2.41075568255359   -1.76055589647767    7.02912342298679
H        -2.07131464221074   -2.71365409315796    5.58750114281204
H        -3.73095225233856   -2.45101582968536    6.09705333169427
C        -1.51378377654382    2.32880150078598    6.64613688789721
H        -2.55197186043700    2.15968225619526    6.90923082338832
H        -1.47419075409757    2.86614283486071    5.69854201369667
H        -1.07434609980903    2.96018493169968    7.41839476227181
C         0.74710375648852    1.44277837856126    6.31404709348792
H         1.40720618882839    0.58422326607572    6.35740891036993
H         1.05624806302570    2.15128497002089    7.08210138320968
H         0.86347879408627    1.93768628540754    5.32974121373250
C        -0.82241709985750    0.19989158813852    7.79492429343964
H        -0.34207120075359   -0.77100315051752    7.68500488382925
H        -1.85725773763875    0.04952488381956    8.09114912721714
H        -0.32205809833487    0.72649463161179    8.60822532569629
C         3.32730837658813   -0.87852576557119    5.38080257355906
H         2.65513024796468   -1.03774392144036    6.22166753648323
H         3.44168886620251    0.19096704231539    5.21166736231839
H         4.29932808303810   -1.28253329900612    5.66310171243784
C         2.54675341965189   -3.04045719601421    4.44795457435330
H         2.24067078722707   -3.60666820166333    3.57554883933839
H         1.78196427703297   -3.14873185606501    5.21318418863045
H         3.46321053334529   -3.48954492721003    4.83197506238696
C         3.92156533554992   -1.47557214952261    3.06565259092163
H         4.01512744319596   -0.45104511316183    2.71076534686431
H         3.72529423372784   -2.13129218950234    2.22212473516171
H         4.87624596832680   -1.77550589407169    3.49813991975075
C         1.74056608043083   -0.57103453976265    0.77103815806829
H         1.85016655059383    0.49075218967126    0.98989359815729
H         1.31728592301543   -0.67173079836563   -0.22826911059852
H         2.72545150864559   -1.02448883971320    0.75872302309520
C        -0.58622850647204   -0.62123155376994    1.55241514948060
H        -1.34106252316306   -1.13573329948842    2.13601241743729
H        -0.85662836093285   -0.69973144712713    0.49974722088420
H        -0.59511224027904    0.45139805632445    1.82565801839363
C         0.74406027915733   -2.72664678077209    1.58895997755035
H         0.24644573732956   -2.93869768678445    0.64212872411720
H         0.17904708689441   -3.22040859336930    2.37778900607115
H         1.73780277782844   -3.16427899807372    1.54069300609257

