68
CSD_code = MAYZER | q = 0 | S = 0 | Stoichiometry = C25H35ClN4O2Pt | MND = 6
Pt        3.01690515859827    1.68072549901872    3.25254285744748
Cl        3.20591587747553    3.78161644755715    4.36329097925692
C         1.35899129241254    1.25642138162353    4.39997761257219
H         0.97471289473924    0.24374478390997    4.27563777282945
H         0.58495274875426    1.97237994605305    4.11435562342679
H         1.57690925104023    1.41991089724055    5.45525473117472
C         4.10264430627107    0.71958998316383    4.71807570845677
H         3.55747899483490   -0.07228982232688    5.23088050102221
H         4.40700230075229    1.46042607799192    5.45858964485513
H         4.99976319965953    0.27726403837263    4.27477066795595
C         2.81183437764613   -0.17211131443244    2.18002368037906
H         3.25785546915612   -0.97743728921868    2.76316192171063
H         1.74967598392299   -0.36329510132257    2.03088984920428
C         3.48436280803986    0.02086167034187    0.90924882972314
C         2.85890650053978    0.42108292032208   -0.24008920493123
H         1.78744832083373    0.52409362540956   -0.27503602761074
C         3.59207656164464    0.79468090051095   -1.40746332369750
O         3.13451307281318    1.25016862520499   -2.44100037381674
N         4.98003444977033    0.65656818804202   -1.27593538811381
H         5.54166548280246    0.92028780031878   -2.07662370323117
C         5.65950316086591    0.22688441610231   -0.16920956302588
O         6.86880268246365    0.18833643557817   -0.10593991920969
N         4.85328242558401   -0.14269939232843    0.87812825595437
H         5.32618202370162   -0.44164780682749    1.72079298425116
N         4.70704382489691    2.45592412389841    2.06339871074298
C         5.98187928432737    2.41109223337142    2.41391066913193
H         6.20721457228783    1.90468069522411    3.34216271282571
C         7.00099617918472    2.95333402380787    1.65484615564515
H         8.01468898664414    2.84871318663807    1.99829219285677
C         6.69173660031941    3.59352670913127    0.45981114243416
C         5.34066118985156    3.69696810312110    0.14391214863434
H         5.04603549412124    4.22167824406062   -0.74851076639139
C         4.36576052768461    3.12235698895021    0.95296836340701
C         2.92880830163801    3.18989605907475    0.63079343168610
C         2.47452797048050    3.66342120300315   -0.59911159803179
H         3.18536098561899    3.98217514743053   -1.33795554376289
C         1.12241247057524    3.66538844488009   -0.90815462006898
C         0.25871555849044    3.23972737816691    0.10079700344912
H        -0.80892241788101    3.22071523589751   -0.04543598369509
C         0.77571267113946    2.80479773687119    1.30404529058896
H         0.11438558299712    2.46277444040244    2.08828621817519
N         2.07324664886018    2.75458385251053    1.56513142135530
C         0.58975673343248    4.03283083645391   -2.27608650415304
C        -0.49331328520163    5.11112800530525   -2.14229043123460
H        -0.08736273033043    5.99953731938711   -1.66234781971708
H        -1.33941889181975    4.76165944300573   -1.55725052754603
H        -0.85836099499115    5.38954410190045   -3.12798134266997
C         0.00237537284279    2.75137303954181   -2.88667659672944
H        -0.37839884282557    2.95741548421567   -3.88394948556486
H        -0.81180592265234    2.35946254854890   -2.28212203362572
H         0.78099012844231    1.99489739302558   -2.96038643363081
C         1.68632405164682    4.54422814087621   -3.21215320988937
H         2.17006564471799    5.43157182481826   -2.80776077702822
H         1.24663792059788    4.80967582647816   -4.17077997784628
H         2.42573855493131    3.76668227948747   -3.38824030590765
C         7.73890214843544    4.11681657226102   -0.50141832142085
C         7.63392172279182    3.28108962995484   -1.78679730142510
H         6.66782570082791    3.41514380939105   -2.26827410375588
H         7.76577221115581    2.22682073040597   -1.54994194199020
H         8.40902798402692    3.57944790079713   -2.48860067132377
C         9.15666026213074    3.97118454295542    0.05493958686284
H         9.39970104010506    2.92525446301021    0.22468875892877
H         9.27228946183527    4.52530818223030    0.98384232396586
H         9.86956174082199    4.36821572303777   -0.66422364491685
C         7.48117046578722    5.59896941972391   -0.80325586643435
H         6.52067256280818    5.75308962729664   -1.28737043498472
H         8.25507916029522    5.97932295641728   -1.46571552386820
H         7.49880402463403    6.18041348272158    0.11624152033880

