102
CSD_code = MAZDUP | q = 1 | S = 0 | Stoichiometry = C50H45ClN3P2Ru(1+) | MND = 6
Ru        4.57528033813402    0.50512315998641    4.59310203653821
Cl        3.53378828690121   -1.51483576653492    5.33457571325665
P         5.22858940494131    0.44044439868020    6.84426658877315
P         3.89794888785545    0.30269087729874    2.34727937955922
N         5.67616231783432    2.10864990323442    4.18284429313289
N         6.27959506719676   -0.39506668082767    4.06809198993464
N         2.95927101091463    1.46304597689079    5.01128472783715
C         5.28382838525289    3.37985924648956    4.25020357292453
H         4.23319695132683    3.54553461811929    4.44990467568271
C         6.13796062468192    4.44544345863342    4.07210006464118
H         5.75862385617185    5.45203179877191    4.14272874449255
C         7.48659032587553    4.21320425076714    3.80894121830811
C         7.88535506922381    2.88824922542856    3.70435891376586
H         8.91695145142536    2.66166976421370    3.48906736750086
C         6.96892410582864    1.85778948378400    3.87873373486764
C         7.29004414474995    0.44042859708024    3.74302367092690
C         8.51661360479531   -0.04640740858677    3.29874776805582
H         9.30334105160953    0.64139158735156    3.03341986558540
C         8.73245230562470   -1.41267058237434    3.18747250127000
C         7.67991077933854   -2.25192810394656    3.55318723249214
H         7.78936883696375   -3.32316680963249    3.50425781813773
C         6.48999640816886   -1.70796853931855    3.98619240576172
H         5.67155009908904   -2.34465874451133    4.29583659884407
C         8.45590834351515    5.32901667380611    3.61699368882629
H         8.68813793625051    5.43860616179206    2.55768566955097
H         9.38714734589734    5.12446001555837    4.14054998836812
H         8.04483463614974    6.26816996731873    3.97565658934638
C        10.02463668314262   -1.96421683805555    2.68957686873192
H        10.32103569364406   -2.83259918040165    3.27335546344020
H        10.81422822558760   -1.21868339388468    2.72909951168617
H         9.91120571396418   -2.28805619359335    1.65484420597699
C         6.29743069011119   -0.97661137495069    7.23019286914399
C         5.77692751432366   -2.06744337363997    7.92165004840209
H         4.75423609864990   -2.04401694253044    8.26910949103692
C         6.56183769430473   -3.18284141078993    8.15031986355093
H         6.15102489575092   -4.02354209802460    8.68824323033954
C         7.86748395608720   -3.22420494851035    7.68984489690413
H         8.47933214924734   -4.09416032631972    7.87371338536774
C         8.38576437527407   -2.14966224147442    6.98584292474102
H         9.40092502413068   -2.18022784322219    6.61730007006389
C         7.60401368846262   -1.03450714638788    6.74681724914000
H         8.01208466139979   -0.20646838578580    6.18073855395178
C         4.02520807855397    0.40015163339278    8.21271404452604
C         4.51556886663079    0.62065173506181    9.49998304150474
H         5.57177643136802    0.80112957855463    9.64782676248513
C         3.65743810110454    0.60211650165672   10.58160198865274
H         4.04335383803955    0.76984701687348   11.57573032008140
C         2.30441230480650    0.36520485221338   10.39149458800464
H         1.63537081004361    0.34944316241375   11.23831582110430
C         1.81559720317181    0.14033399279820    9.11657042867517
H         0.76453234741899   -0.05976937697575    8.96882787783611
C         2.67055028386290    0.15700202055217    8.02694538449259
H         2.28889420770089   -0.05015593745756    7.03786383537627
C         6.14724859871214    1.93935540618069    7.34463602804778
C         5.40682997108313    3.11507459795903    7.22789764262982
H         4.37261252795303    3.04791883925921    6.90748928196673
C         5.96844713259406    4.33658700293435    7.54083897960276
H         5.38420484134708    5.24053048139270    7.45306112007374
C         7.28420001052075    4.39786411858438    7.97253080120920
H         7.73089792134408    5.35051378814196    8.21282846566505
C         8.01731709223042    3.23274532128428    8.11522702896725
H         9.03377281659309    3.27575840293287    8.47724308011970
C         7.45405255454830    2.00471152576536    7.80852092939661
H         8.03050649158516    1.10375142181989    7.95670153008914
C         4.75739381592298    1.60838178755512    1.42220901798860
C         4.23425090183279    2.89891453678688    1.39009341285188
H         3.25074403634340    3.08392736809024    1.80239727300897
C         4.96276391144630    3.93222889018347    0.83009244916054
H         4.54467572468815    4.92701038624556    0.79249783659449
C         6.22961335897653    3.69417001476166    0.32207533911902
H         6.79507304536451    4.50145397506163   -0.11780132344606
C         6.77016667018725    2.42002152639411    0.38065037717242
H         7.76073399835174    2.23406335106908   -0.00728280300662
C         6.04341132504528    1.38240842277879    0.93522352425068
H         6.46774464921019    0.38731024971146    0.98328744833689
C         4.18356041976378   -1.21470317719900    1.38010762545183
C         3.97519647210233   -2.43872920985218    2.00889341963380
H         3.69923721947036   -2.46232873847105    3.05405550107164
C         4.09806899580055   -3.61481453157546    1.29133722707852
H         3.93883041796405   -4.56177653801313    1.78436975573741
C         4.41332066614672   -3.57636643533233   -0.05661492436246
H         4.51053038283503   -4.49388579547764   -0.61680521951014
C         4.58487226672738   -2.35701358659283   -0.69238629270315
H         4.80590536072442   -2.32432814644179   -1.74882865461683
C         4.46312852887794   -1.17627370125242    0.01665336932722
H         4.58093638507244   -0.23011610074315   -0.49196049542747
C         2.12978873334686    0.49502183425253    1.96542067575900
C         1.22604003061582   -0.08615767380757    2.85129804048849
H         1.59536142145713   -0.57508206339290    3.74491307687216
C        -0.12911225691011   -0.05148163044951    2.57599483400924
H        -0.82939547151831   -0.50674858558716    3.26089523791782
C        -0.58622362336921    0.55349494206244    1.41603983290927
H        -1.64380267906214    0.58135863182804    1.20147625847311
C         0.31487318499604    1.10826765945966    0.52120245342907
H        -0.04054237267277    1.56163550256108   -0.39193979780540
C         1.67209619961271    1.07359342105118    0.78592833302206
H         2.37214139355869    1.49214345610689    0.07685556519587
C         1.91625340794341    1.90483661230635    5.22905768969239
C         0.62086785933851    2.43959800377317    5.51891200112198
H         0.62276427139352    3.52394695843863    5.40913319489183
H         0.34238867168152    2.18463162351266    6.54193863825272
H        -0.10828839422909    2.01105584291684    4.83050567071390

