52
CSD_code = MAZGOL | q = 1 | S = 0 | Stoichiometry = C25H20N5ORu(1+) | MND = 6
Ru        5.08552060843146   16.35483845926204   20.59404277201343
O         6.34058680278086   17.67554146982619   19.48867946481402
N         3.67322134340338   17.52001846697543   19.70585032116773
N         4.87665254293796   17.52823253957996   22.16601701122885
N         3.78974871066620   15.28559724274335   21.62691628426601
N         6.68776490674776   15.34561422558157   21.19267452398667
N         5.34090771719523   15.17756811415432   19.00009696859802
C         2.36303369855703   17.69739129804235   19.64633302908764
C         2.04114579216228   18.75466033627001   18.77590802880423
C         3.23018161514724   19.24297223762938   18.28407567847199
C         4.25217783654669   18.46446411075437   18.87355230569159
C         5.64552236704791   18.47098118205458   18.80898056857882
C         5.52708826673714   18.67570986290090   22.35466934844100
C         5.23956980449838   19.53619741115768   23.39664822729119
C         4.23101602490846   19.19492852290353   24.29041785626807
C         3.56116264450481   17.99881540646500   24.11108555042424
C         3.90355746028987   17.17634547194714   23.03892049971163
C         3.29527181204582   15.88371849635329   22.74082900710410
C         2.30781023584508   15.27542608238795   23.51441574623447
C         1.82026260693794   14.03499097740726   23.15023868258103
C         2.34300770618647   13.42472671392452   22.01529849486654
C         3.31724361262234   14.08191863337972   21.29122024619074
C         7.28042130507078   15.42448209312434   22.38394014903295
C         8.50935927065997   14.85505465833015   22.65533611902339
C         9.16671147490817   14.16732682623327   21.64298364026973
C         8.55319110248059   14.06424296014020   20.40879635266102
C         7.30885429482719   14.65927847851318   20.20587098074954
C         6.54912570254339   14.57131184957932   18.95816510208390
C         6.98394673776567   13.90548789262336   17.81328166246689
C         6.16438090690185   13.85633396519566   16.70036387039391
C         4.91774828293132   14.46495599685507   16.76370955572234
C         4.55071375460955   15.11092516375344   17.92979907932833
H         1.68255756954659   17.08049990171257   20.20994990665532
H         1.05176549304941   19.10132605921512   18.55268670316881
H         3.37541648547639   20.05159276121087   17.59607980153796
H         6.16534905426168   19.18773047953508   18.16351299338458
H         6.31014036385813   18.90305871062203   21.64061480544133
H         5.79040318720260   20.45601533444932   23.50464200387788
H         3.97623545245299   19.84813324368380   25.10933252950860
H         2.77701250148807   17.70948732917226   24.79075670635370
H         1.92662795052528   15.77157103464367   24.39141255763867
H         1.05421948200756   13.55162579085207   23.73447956483479
H         1.99731328525165   12.45492170218944   21.69717989207152
H         3.73927310433713   13.63148408595291   20.40038574492632
H         6.74564834956151   15.96750339024277   23.15450717206910
H         8.94472247413049   14.95252246481810   23.63629188095227
H        10.13234959157525   13.72001335559112   21.81531990133497
H         9.03821889553884   13.53070076689794   19.60855185502118
H         7.95464500109416   13.43919566575528   17.78907871741034
H         6.48847965669168   13.35309176822751   15.80357039501001
H         4.24394980581175   14.44595465369058   15.92303580506378
H         3.58686534724059   15.59801435548884   18.01419393618496

