55
CSD_code = MAZJED | q = 0 | S = 0 | Stoichiometry = C16H32O4S2Ti | MND = 4
Ti       -0.55889988701687    2.63684449291907    7.18655056128171
S         1.99218162888875    4.02187051407809    6.32438879728917
O        -0.10567623900040    3.61430329250835    8.53919812395660
O         0.74637370713356    1.49201772590701    6.90213248139667
C         1.01782838297958    4.32221532142654    8.92248353357619
C         1.28726364585387    4.07627386237393   10.42154035996676
H         1.39534806422548    3.00719966411350   10.60125185761439
H         0.44264029287112    4.44199310517851   11.00136698475451
H         2.18982255696327    4.58952003887927   10.74347917459078
C         0.79927914999177    5.82415167860360    8.66816429703698
H         0.66935608132197    5.98951235951467    7.59886737512696
H         1.64873649271567    6.40343180131569    9.02161652456844
H        -0.10180117899547    6.14691153065822    9.18629345285285
C         2.24372321467140    3.82922315858673    8.12619983641603
H         2.38116974205179    2.76244834592862    8.31420887162530
H         3.14036446687488    4.38794092631765    8.40279320245935
C         2.61813667028629    2.42308551024426    5.72068489894049
H         2.95463558866004    2.59411712677085    4.69854443869655
H         3.47691504796548    2.16094455353194    6.33966814643107
C         1.52507893556483    1.32137533836950    5.77491204015019
C         0.65674920376487    1.40543806746730    4.50538561353860
H        -0.19909252679428    0.73690921995369    4.62338937910777
H         1.22580910513836    1.11743915968921    3.62290309407842
H         0.29151064771983    2.42862602854848    4.39210793551051
C         2.21984708491760   -0.05416598266096    5.83565779813034
H         2.76473803090064   -0.15051268697101    6.77305435985500
H         2.91085526640566   -0.17390334915628    5.00472466659336
H         1.46670444719239   -0.83780639103288    5.79565953362624
S        -3.10992150124999    4.02185073947382    8.04872709801534
O        -1.01210822721860    3.61434787567347    5.83393066510168
O        -1.86418672211741    1.49202662334607    7.47094806428886
C        -2.13563008562514    4.32222134497590    5.45062357970679
C        -2.40506389534168    4.07622445267736    3.95157598053893
H        -2.51310607641710    3.00713962447792    3.77189797007432
H        -1.56045848894429    4.44196032519174    3.37173498093360
H        -3.30764561998514    4.58942474030876    3.62962771450674
C        -1.91711625337167    5.82417121400709    5.70489886297477
H        -1.78721599627888    5.98957333819482    6.77419210303511
H        -2.76657974273702    6.40342005615018    5.35141144441888
H        -1.01603394935269    6.14693452419785    5.18677488938069
C        -3.36151439228824    3.82922251236371    6.24691909698700
H        -3.49896215147602    2.76244791195629    6.05890935122738
H        -4.25815830468777    4.38794445714812    5.97033780915890
C        -3.73591968843195    2.42309265437331    8.65245357185965
H        -4.07237185358579    2.59413207567024    9.67460991549594
H        -4.59473065497379    2.16097885696471    8.03350075171987
C        -2.64287942276913    1.32136930654109    8.59817607981661
C        -1.77452706000293    1.40537442033006    9.86769301164754
H        -0.91870265604646    0.73682916189961    9.74965543727127
H        -2.34358046155292    1.11736123983763   10.75017534147790
H        -1.40926267136329    2.42855039314947    9.98099795002276
C        -3.33768557487134   -0.05414804523468    8.53739724163569
H        -3.88259424273016   -0.15045605347206    7.60000581342947
H        -4.02868282100409   -0.17389568290256    9.36833846524252
H        -2.58455910882812   -0.83780248035867    8.57735947085651

