110
CSD_code = MAZKAZ | q = 0 | S = 0 | Stoichiometry = C56H47N3OP2Ru | MND = 6
Ru        9.01613429650991    0.14895002649991    5.84627660766057
H         9.01490694396744    0.40183521162006    7.35547072063099
P         6.70498151651757   -0.02493374143785    5.87260772897013
P        11.30723850658666    0.17450665390121    5.90569384830097
O         8.96186079098212    3.04015387084680    5.08509315943976
N         9.13427111551169   -1.95533069873245    5.85315475805502
N         9.01445692436550   -0.87364970716837    3.94109468026450
N         8.89790678005320   -3.30378104646354    3.94824706956966
H         8.57326759833291   -4.00616605934455    4.60182202720675
C         8.96741530773388    1.93199372472303    5.41607074426429
C         9.03931891834914   -2.05373653646589    4.53029272899324
C         9.21417715925551   -3.79396833785827    2.69102761502367
C         8.72001056202987   -5.05200464446498    2.34143803122454
H         8.10688216017286   -5.59376251925517    3.04923951301389
C         9.00516423754861   -5.59747404669423    1.10670386446129
H         8.61164509306537   -6.57030510774398    0.85027962105152
C         9.78916519848946   -4.90284733783649    0.19943138319864
H        10.00752000835009   -5.32858629027800   -0.76804370010711
C        10.29505330065304   -3.66326135769287    0.54892376425890
H        10.91497154151302   -3.11519747283917   -0.14548815560786
C        10.01909120556143   -3.10863086106030    1.78445481063415
H        10.43255882740704   -2.14845255722252    2.04349038538944
C         9.40302616770641   -2.99035787993487    6.72439936172538
C        10.26143632785508   -4.05548280628271    6.42431667388852
H        10.76404097833018   -4.09514917440377    5.46708568089477
C        10.51565459415725   -5.03338993926964    7.36551439539982
H        11.18954404811473   -5.84158790010377    7.11850066162199
C         9.92404323493926   -4.98256745955787    8.61597377837411
H        10.12438382806251   -5.75476941175003    9.34353712703563
C         9.08901411891049   -3.92174214810593    8.93194629277521
H         8.63541426648527   -3.86333177785811    9.91121022811477
C         8.83632185704401   -2.93442393515428    8.00445972480473
H         8.21173790589066   -2.08443151001278    8.25327320880025
C         8.64693839449618   -0.56874413886669    2.64685293031581
C         7.74103242276121   -1.31390987829652    1.88450922986264
H         7.28984191630583   -2.20450984593494    2.29289556662622
C         7.39373832832003   -0.89849123375313    0.61402435604980
H         6.69019087758315   -1.48755599278421    0.04278185063747
C         7.93430136466673    0.25417750607483    0.07142427773140
H         7.66070874110368    0.56738621973010   -0.92515413779565
C         8.82118228175083    1.00887241772561    0.82393127400782
H         9.24224683044863    1.91721012139964    0.41715004020383
C         9.16800715728468    0.60924498575572    2.09638665306406
H         9.84567222695397    1.20240602038278    2.69635029455356
C         5.87529202513007   -0.05683623830582    7.50118417763373
C         4.83384866775081   -0.91169584044608    7.84357726338911
H         4.46713767254928   -1.64044403835961    7.13455533771137
C         4.25541750708098   -0.82826639498608    9.09930163338614
H         3.45083608635692   -1.50038734564237    9.36134861073683
C         4.69875508910079    0.11187161161752   10.01351627343607
H         4.24471849946602    0.16969386957240   10.99189665332789
C         5.72305509000824    0.98066294610518    9.66914030597604
H         6.06536174227500    1.72116202498525   10.37703358142935
C         6.30824221099261    0.89621791353877    8.42061643750926
H         7.11654728408752    1.55982217587209    8.13551492632609
C         5.95871078935985   -1.47292563928701    5.04111243717518
C         5.24734834100133   -1.37695123122882    3.85058210221889
H         5.07296786238540   -0.41086064574736    3.39919424269476
C         4.76335864294481   -2.51991171930935    3.23562396513037
H         4.21064935228763   -2.43370254262305    2.31147406670310
C         4.99483326025037   -3.76666678697859    3.79055677075136
H         4.62520805820303   -4.65567922377394    3.30083250803749
C         5.70171444633807   -3.86976143258325    4.97876243413112
H         5.87804589523063   -4.83963053361731    5.42385022979867
C         6.17762903456480   -2.73162937699442    5.60182717695222
H         6.71631089139042   -2.81216361143934    6.53697787841083
C         5.79427189274984    1.34203570104425    5.07094726067267
C         6.29911139730973    1.83323377297106    3.86908727560826
H         7.20512899088254    1.40895022682373    3.45675677384353
C         5.64893909269670    2.85291588816693    3.20041376920132
H         6.05082269578219    3.22307081964195    2.26873234028938
C         4.49009443820964    3.39814686325541    3.72904540294746
H         3.98434726645897    4.20076827319981    3.21266298140883
C         3.98202892899925    2.91314770349615    4.92249727204202
H         3.07797215919298    3.33590855227191    5.33655098517526
C         4.62554746615192    1.88685416613570    5.59194660549238
H         4.21920530437632    1.51486598900403    6.52147611425888
C        12.15462397871987   -1.13062456149055    6.86631584604447
C        11.60782886074216   -1.39036768381384    8.12047463960358
H        10.72018469596007   -0.84827871059325    8.42089261683813
C        12.18532960735706   -2.32427068596566    8.95811654967889
H        11.74966064196478   -2.52332842786579    9.92588537061190
C        13.31802254011413   -3.00968195163226    8.55092780145837
H        13.76599730923948   -3.75010160421466    9.19723909983246
C        13.88169775674038   -2.73692048316066    7.31651614028968
H        14.77505839693216   -3.25823808944916    7.00288120250947
C        13.31200916643030   -1.79475561495308    6.47737437135729
H        13.77547635185626   -1.58447731522208    5.52370657673905
C        12.16098821798096    1.59695059612039    6.67096376246847
C        13.54534890895509    1.71166614427111    6.56632405305054
H        14.10395495246797    0.97800717289858    6.00091368295058
C        14.20184099113495    2.76311994110775    7.17588168218665
H        15.27505028908898    2.85148087835662    7.08722963950334
C        13.48556135798429    3.70255871605421    7.90174932498447
H        14.00154591981258    4.52461861590658    8.37584541390455
C        12.11153548658902    3.58330211170403    8.02099976058198
H        11.55297143700368    4.31182443945435    8.59006455571414
C        11.44931413602007    2.53136850110424    7.41112139539032
H        10.37548096145854    2.42141765996181    7.50115651614314
C        12.09741508141548    0.12375116108336    4.26707783610833
C        12.39609256935169    1.31668287781064    3.61227776232823
H        12.22473833553537    2.25752431264877    4.11946902152666
C        12.90212645241876    1.29738483571894    2.32604695739368
H        13.13361877911180    2.22623727245984    1.82524417047677
C        13.11060085666702    0.08979907183431    1.67892973577429
H        13.51439771373581    0.07488110009738    0.67732896099198
C        12.78948165849976   -1.09896147676158    2.31294857739439
H        12.94110738485664   -2.04134931818926    1.80558169301426
C        12.26700424136309   -1.08287105342445    3.59429831900745
H        11.98860101873989   -2.01026773241284    4.07997049571448

