84
CSD_code = MAZKAA | q = 0 | S = 0 | Stoichiometry = C39H39Cl2NO2Ti | MND = 5
Ti        6.06847877989497    2.30807060466324    7.93320656294345
Cl        5.14847812390591    2.58924231831350    5.97933123358654
Cl        7.94055422119619    3.38814898361867    7.51585000984761
O         5.43869642614550    3.31176909919728    9.12333697992077
O         6.58674917896689    0.69014033158167    8.02649957744139
N         4.13787921847317    1.15518344686514    8.76185179914985
C         4.42724886400184    3.24507327188911   10.05899458896604
C         3.92146726847312    1.76297868060028   10.07619805083668
H         4.51421375699907    1.21975458939618   10.81476432436294
H         2.86421579309596    1.71910786434993   10.36413243193505
C         4.60373726358237   -0.22702449933860    8.85217967046814
H         4.37727608394562   -0.73072823025531    7.90781563430167
H         4.12535964499559   -0.76465986859729    9.68026713230043
C         6.15822809105086   -0.22090462178838    8.97379675705590
C         4.97771775401183    3.65688531253636   11.42081722091767
C         4.48862126257185    3.16556835613739   12.62326330774420
H         3.68707566136245    2.44177257803407   12.63929771818431
C         5.02831908645690    3.59309754615156   13.82322856341395
H         4.63396043845023    3.20225587245155   14.75056278246812
C         6.06700335449237    4.51302841149127   13.85682607417203
C         6.55708931341563    4.99597319457415   12.64994985152877
H         7.36832685122157    5.70988950726128   12.65087409366225
C         6.01914584057795    4.57690349559035   11.44907987801944
H         6.41186437837196    4.94965237035059   10.51144321965710
C         6.63096393881607    4.99079646065440   15.16037603813414
H         6.50259821657004    4.24307582858967   15.93934512983691
H         6.11587656162850    5.89830765908231   15.47616390208359
H         7.68836042214471    5.22554286742566   15.06391490497929
C         3.28908911382983    4.19132571895888    9.67521480729269
C         3.30639622110058    4.84372569987261    8.44745605888588
H         4.14631933925053    4.69448606190729    7.77427915170713
C         2.26426693698026    5.67544010570937    8.08320412748934
H         2.28935412390355    6.16978083427164    7.12325221930608
C         1.18322069736032    5.88365516627344    8.93254040637491
C         1.17900422707934    5.24010171219389   10.16259238752516
H         0.35293104660596    5.39206790976774   10.84277777382021
C         2.21792172839795    4.40447904921941   10.53302968245871
H         2.19409315190557    3.92189655336837   11.49851047470148
C         0.05847803921055    6.78280836770450    8.52005135532227
H        -0.68993488022452    6.85738452347260    9.30483954775091
H        -0.41886655303709    6.40204618671202    7.61798140459332
H         0.43351537248696    7.78106097518729    8.29999816858274
C         2.96351081631761    1.31429130901176    7.88004220634317
H         3.22120929530137    0.89169415725608    6.90367156369828
H         2.79941559118758    2.38840763931711    7.74779522421759
C         1.70025229798351    0.67552175187804    8.40678352319264
C         0.74532402478421    1.45124270014562    9.05723587493028
H         0.89707573756301    2.51758860545601    9.14904150798281
C        -0.40490658951768    0.87606440333970    9.56948890297748
H        -1.13469599077848    1.49398135136202   10.07135655188410
C        -0.62159235607613   -0.48422878517210    9.43391469883536
H        -1.51823094992212   -0.93432337948154    9.83303848364940
C         0.31060849082182   -1.26218401735732    8.76880640815313
H         0.13915956821667   -2.32091985175956    8.64160812688006
C         1.46022442880422   -0.68608083085232    8.25718074185314
H         2.16646351907724   -1.30243938541182    7.72064655031948
C         6.77377885860598   -1.58771376297604    8.69234177865470
C         6.10310590577557   -2.78871218209832    8.86771358274035
H         5.07643161333401   -2.80713437572351    9.20183234679821
C         6.74370597121675   -3.98943937409110    8.60972330768317
H         6.20499783403313   -4.91610860473290    8.74941414035635
C         8.05946587151450   -4.02176014356213    8.17265584229954
C         8.72619370381820   -2.81346080130874    7.99899999042899
H         9.75122109074392   -2.81609060520754    7.65770622111950
C         8.09476176126561   -1.61442973026105    8.25832799099779
H         8.61352282168579   -0.67605070378936    8.11506955461828
C         8.75284954218354   -5.31738731298234    7.88103102248550
H         8.13464553584115   -6.16473843915013    8.16627110114364
H         9.69669119835113   -5.37416360288286    8.42079474280988
H         8.97436372572611   -5.39349677810652    6.81689966472670
C         6.60660125640139    0.18995508707653   10.37954214485866
C         6.23550790006679   -0.57068192917680   11.48613895366331
H         5.64924929648310   -1.46851502718228   11.35272130845854
C         6.61413382156999   -0.18965455679257   12.75860785268633
H         6.30961369346490   -0.78760565110180   13.60562542591634
C         7.38511440324702    0.94907702673490   12.96619756263747
C         7.78624290184257    1.68086446831913   11.85801925958563
H         8.40508469642082    2.55586015113250   11.99045474353448
C         7.40834307807222    1.30839877919581   10.57834146630408
H         7.76470926671273    1.88681084850921    9.72725329787779
C         7.79780376429643    1.34562239875342   14.34953992764632
H         8.16950602077576    2.36558709595242   14.36242955484826
H         8.58712511494226    0.68539558332108   14.70817341302368
H         6.95881710816685    1.26679617895921   15.03706843345273

