69
CSD_code = MAZLUV | q = 0 | S = 0 | Stoichiometry = C24H38F2I2P2Pt | MND = 6
Pt        3.83709390397559   20.68175284666765   -1.81785676614440
I         5.72076710572950   18.72193505164675   -1.27711919637532
I         5.63239884897101   21.94610123686131   -3.51576588562733
P         4.86755466439010   21.96323047829152   -0.06355114018096
P         3.04781706645663   19.28413355977615   -3.59565567397722
F        -0.12859909841236   25.34898283706752   -2.79912158381924
F        -0.53429539867854   17.72374624974869    1.50258240896015
C         2.48761769311481   22.22075298958342   -2.15972126763061
C         2.30583874782452   22.75079833077231   -3.43189519283461
H         2.85136534468575   22.37011432495788   -4.28464310777796
C         1.42970388741532   23.80139963904469   -3.65779861125257
H         1.30205072832084   24.21064790313662   -4.64745991335215
C         0.72500396679136   24.32391839398065   -2.59216730470954
C         0.86642692314010   23.80878186011907   -1.31827848986424
H         0.29603894402493   24.22203527547707   -0.50095404858441
C         1.74556798416580   22.75780517856456   -1.11361611444498
H         1.81964749192659   22.34828826720125   -0.11594417686643
C         2.36872439936668   19.73583709191804   -0.65452152411583
C         2.70474703193682   18.91212151635003    0.41339516239687
H         3.72959508985905   18.75776790859773    0.70963828020845
C         1.74164735232757   18.23606908495466    1.14635471827294
H         2.02406760348787   17.60230400256017    1.97195061372261
C         0.41403850138578   18.38068524405913    0.80113496213423
C         0.03916428830903   19.18979271122760   -0.25320174296064
H        -1.00303417406214   19.29577471757284   -0.51132212997552
C         1.01770594777930   19.85863063259425   -0.97068380889844
H         0.68347509038344   20.49665443062096   -1.77442419982093
C         4.55213675556566   21.44006728421174    1.68230117096555
H         4.80213796186160   20.37673479006357    1.74346707064217
H         5.28874794559457   21.97945525977524    2.28689519616691
C         3.16164448201560   21.68135238760543    2.25230923321356
H         2.91098852276904   22.74014215646217    2.24997163130623
H         3.13028285901764   21.33297508944173    3.28342250805994
H         2.40262073502695   21.13493793338147    1.69668412352718
C         4.51240429752556   23.77154708245990    0.06401921727983
H         3.45296767414705   23.88953627847678    0.29991063359298
H         5.08839802898306   24.11421315764895    0.92955010372202
C         4.84735110194021   24.61086187948430   -1.16057858254408
H         5.87329543924255   24.45854167313675   -1.48721970790731
H         4.71466797979136   25.66571744410657   -0.92559185965937
H         4.18789450534225   24.36877687919332   -1.99056780695710
C         6.71526738799877   21.86579084669246   -0.03266179696586
H         6.94993055625441   20.89928104028300    0.42497598614705
H         7.08704146256638   21.83645390140462   -1.05875196602020
C         7.44425328757217   22.97049122259739    0.72264702871173
H         7.34113213958974   23.93413980827052    0.23106030402162
H         8.50365712000186   22.72217481988292    0.74374421316116
H         7.10773300099698   23.06197542420811    1.75395290274116
C         1.37605396747431   19.74886989872979   -4.27524412318236
H         0.66077342608041   19.08161112985577   -3.78487472948314
H         1.15453673032458   20.76537842569666   -3.94078008218988
C         1.17639157214281   19.70346977334201   -5.78640737995411
H         1.86611674593016   20.36993389847549   -6.29843221527605
H         0.16375983402426   20.03516110463924   -6.01175666454661
H         1.29277712180623   18.70046883237074   -6.18920865530726
C         2.75605189494259   17.54401902916464   -3.05482642358918
H         3.69694347383634   17.15004618286414   -2.66450747248835
H         2.05013104003576   17.59154224822030   -2.21854131776369
C         2.22184200399497   16.60665428788782   -4.13046942750020
H         1.27995531575483   16.95913045648297   -4.54484394441118
H         2.04372679481032   15.62927119394559   -3.68569758003014
H         2.93702715472478   16.47649553184944   -4.93862552844722
C         4.07985564207846   19.09974762336487   -5.10996898251165
H         3.46295988393396   18.52558974983305   -5.80665320738844
H         4.23310051678478   20.09751602896834   -5.53205132746284
C         5.42432411231274   18.40759106265188   -4.93107744385137
H         6.11696246510791   19.01968639372267   -4.36191365937239
H         5.86743497149778   18.23981536939409   -5.91083774010843
H         5.32229215397140   17.44707365630303   -4.43127596491436

