87
CSD_code = MAZLEF | q = 0 | S = 0 | Stoichiometry = C43H33F3N6PRh | MND = 6
Rh        2.89967681832735    9.49444776703342   16.69224935538973
P         3.42991272706250   11.40304296852155   15.40722096311062
N         6.70053934041591    8.44948306161561   17.38858730038665
N         4.40945121795362    6.90722921850685   14.09917041146065
N         3.88188450793857    7.39272651156754   19.90084971867064
N         1.63375997330735    5.71284892617738   16.65190460571690
N         1.25573028261483    8.15007955282095   14.45234890026892
N         4.50047637943154   10.52341699388716   19.12021835815782
F         0.97233881294207    9.81912999196661   18.81310186338254
F         1.12573262859830   11.63305829048670   17.66291898590961
F        -0.01808623387779    9.97489394132740   16.91062815729427
C         1.16131323456708   10.26766867017240   17.53662589623760
C         4.37536071953059    7.91648429051704   16.45466006114840
C         3.28356854998951    7.53060519527216   17.40544850304619
C         5.65406306977228    8.20174726223033   16.98043260265006
C         4.38956027561359    7.34554448540591   15.16244189783773
C         3.61182871171941    7.45206086946543   18.78664796155397
C         2.36927894972167    6.52726331812110   16.98991807138496
C         1.87519820802682    8.71060774991846   15.26197493719980
C         3.87684808847471   10.18063021357517   18.20060349933517
C         0.53072512902308    7.48245170475071   13.52452131120035
C        -0.67014310120705    6.87607223571281   13.91798694542500
C        -1.38884216108715    6.19555668189500   12.94709617493084
H        -2.31626405946117    5.71568661994487   13.22079631845674
C        -0.93008260171924    6.12095582274648   11.64332544454926
H        -1.50430793666529    5.58370199265707   10.90355865263541
C         0.26071060128953    6.72742461571464   11.28005981565608
H         0.61245979945208    6.66035190156441   10.26156977503782
C         1.01627076883269    7.42071093299795   12.21156946556186
C         2.30913880600563    8.07898601297695   11.85800539889991
H         2.52265602873709    7.96571985070101   10.79906188282706
H         3.12681693297287    7.63622444123832   12.42979554921340
H         2.28142763729109    9.14189241809480   12.10012140555991
C        -1.12707027377988    6.94973984756194   15.33617868769181
H        -2.12040383988172    6.52384029569306   15.44347949884360
H        -1.14121810802914    7.97865018697367   15.69365952216306
H        -0.43675905150938    6.39189768814924   15.97165450709285
C         5.15765519797469   10.89941142599083   20.24204090357015
C         6.49167455267435   11.31429797119698   20.14103684944410
C         7.13052234236184   11.70537234806059   21.30700416952291
H         8.15929903371816   12.02937306375470   21.25949773500567
C         6.46952090930359   11.67662103285374   22.52319916425291
H         6.98531779653390   11.98489244121645   23.42018706633404
C         5.15626470625126   11.24549225461000   22.60008799413736
H         4.65397033315166   11.21284240206994   23.55504441142983
C         4.47178506423971   10.84429929877303   21.46363504046742
C         3.06813321848326   10.34131652210526   21.51754228309714
H         2.66913687598117   10.41723294755963   22.52473440386314
H         3.03900463193840    9.29576533423442   21.20680866914723
H         2.42227414285416   10.89793424414480   20.83956810505062
C         7.19135010525044   11.30117573925038   18.82263192646547
H         8.19174268101571   11.71449662056085   18.91420343615095
H         6.63811672008609   11.87699637694513   18.08223864904105
H         7.26755436537268   10.27787346191526   18.45038781424360
C         2.08597592968040   12.45531706736521   14.76709142023172
C         0.86815108691977   11.87185234791865   14.43256773904470
H         0.71888431274780   10.81291463047971   14.58727727398506
C        -0.15602999497784   12.64283264773561   13.91448832417823
H        -1.09979323885960   12.18177978000593   13.66471025204184
C         0.02798860006771   14.00260124910347   13.72660755741310
H        -0.77359370779924   14.60682119606774   13.32908170380457
C         1.24061880052097   14.58757809525380   14.05309325924063
H         1.38703816660210   15.64753190622425   13.90655943585338
C         2.26869894278786   13.82110280596344   14.57058610204363
H         3.21171125936164   14.28417480197971   14.82288707590509
C         4.51019526016331   12.64414695792511   16.19711536612799
C         4.05976489835920   13.20690375111664   17.39115592216898
H         3.10702376698948   12.90224529755277   17.79873751077050
C         4.81827335591774   14.16149185240584   18.04137379967658
H         4.46442131523365   14.58928311269038   18.96736890315466
C         6.03140867834180   14.56630809554320   17.50560872046933
H         6.62631685622781   15.30907879384382   18.01507724145658
C         6.47860639985421   14.01597501767736   16.31602856792750
H         7.42071563303422   14.33214018200813   15.89345481874055
C         5.72489577661446   13.05643198150159   15.66033481100293
H         6.08236809305811   12.63515889576437   14.73210593664984
C         4.34175013321538   10.95193182609902   13.89499353873398
C         3.88309096442327   11.25354383603785   12.61850477001341
H         2.96958249111294   11.81768937161945   12.49012327478703
C         4.60079270202747   10.83164879430154   11.51174627983976
H         4.23989090534331   11.06726859315795   10.52139970670267
C         5.76902713268034   10.10639291494469   11.67019691617893
H         6.31845456239432    9.77126111292889   10.80374922836856
C         6.23374729193196    9.80870907392488   12.94203079106063
H         7.14424573189202    9.24387787205594   13.07165128302423
C         5.52292058481395   10.22697228395083   14.04913000394813
H         5.88658380004604    9.99990784165743   15.04422143830741

