89
CSD_code = MAZRIR | q = 0 | S = 0 | Stoichiometry = C37H46Cl2P2PtSe | MND = 4
Pt        2.85060164960425    5.98428694002969   12.83448092772175
Se        2.51499032848864    3.59690086598038   13.08009617458444
Cl        1.78743819884360    5.85659287135765   14.88000352396963
Cl        2.91627618741016    8.31136501170790   12.78621359447800
P         3.33091874575221    2.96589450177589   11.15107974879226
P         3.79180107319016    6.00417606795045   10.78199377795579
C         3.23726710115443    4.39781965620079    9.96130092271469
H         2.21880386391773    4.55924916243210    9.62199756211838
H         3.87419776897950    4.16468611479821    9.11481390040423
C         2.34958729293570    1.47604373400360   10.71415763849227
C         1.11227468668385    1.52434529759740   10.05902273943606
C         0.47495137173943    0.34152935224066    9.72004282488405
H        -0.47125819960986    0.38986430432754    9.20013555992662
C         1.00426296312058   -0.89775664411320   10.04744370847967
C         2.16211899742365   -0.92306027196044   10.80688654021825
H         2.55223803677042   -1.87171872539413   11.14752287842007
C         2.83009607090780    0.23847883096187   11.16691061301269
C         0.41211428886775    2.81375019387868    9.76387793271702
H         0.57121010410452    3.51382739773258   10.58282003132195
H        -0.65780836553831    2.63826307063099    9.67337444123292
H         0.75459288139747    3.24694814766312    8.82265451009806
C         0.29687955516746   -2.15714930385616    9.65765123607652
H        -0.58008416878728   -2.30068318399503   10.28865506687308
H         0.94601130325187   -3.02102671126219    9.77383790594509
H        -0.04189114480118   -2.10358574293031    8.62496924420990
C         3.99905546733082    0.11746510905297   12.09368433547961
H         4.93825201144585    0.01128599184528   11.55151672487805
H         3.87453889684320   -0.76099198946695   12.72400121170154
H         4.05761599719589    0.99390963163123   12.73841314351355
C         5.07912614710630    2.48245873737249   10.75553614642957
C         6.13126239487384    2.67854019108654   11.65817439185612
C         7.42612718921338    2.35260079737246   11.27844199089865
H         8.22712760999530    2.50526141103016   11.98662724739012
C         7.71399909575562    1.83419993957914   10.02872189433933
C         6.65978037670741    1.63799696373955    9.15087223809125
H         6.85994241317611    1.22165245556511    8.17317266451813
C         5.34957667131135    1.94467488929132    9.48714357477595
C         5.91859061552038    3.18460301735467   13.04658691571580
H         5.20083538472285    4.00022307758310   13.06435595417881
H         6.85481887475409    3.53965701845602   13.46833242020747
H         5.53972590728726    2.38988746151478   13.69086435747134
C         9.10864120825042    1.46544519432009    9.63130113845750
H         9.82729825750317    1.79725488450794   10.37528214272088
H         9.36218791128030    1.91021865460598    8.67068338518452
H         9.19401821962256    0.38388585876327    9.52673661316092
C         4.30540050610442    1.60587969434260    8.46124307484225
H         4.04132173683752    0.55101726783643    8.54964792361481
H         4.70306191368618    1.76174368402424    7.45927316126459
H         3.39009094880479    2.17905954339624    8.56574966003333
C         3.11487404199341    7.27751092432918    9.65110264394008
C         1.73771697211304    7.27665260980068    9.36971868742772
C         1.24094133062125    8.13556659119135    8.39954956540601
H         0.18265257741855    8.11228725259875    8.17944318907497
C         2.05169128963487    9.04259504807716    7.73676680758126
C         3.36755890361317    9.15047512946408    8.15678915387174
H         3.99290780410679    9.92803534459428    7.74113759411502
C         3.90315796235740    8.31512264549911    9.12553134883971
C         0.72801803173377    6.47933613780629   10.14194737900426
H         0.31032789876854    5.66075875770048    9.55604466528086
H        -0.09757924502555    7.14006227805403   10.40312203213581
H         1.14435356004766    6.10068470939780   11.08327828169795
C         1.49559831764408    9.92174627251429    6.66044791440044
H         1.24105139755510    9.32621419096141    5.78360275113709
H         2.21593678113004   10.68022580520906    6.36564058655268
H         0.58726848298233   10.41438018046016    7.00231332758807
C         5.27257710384665    8.63271847203475    9.64033159462943
H         5.31203987156590    8.43469703931789   10.70823416987426
H         5.47689578688838    9.68994613038338    9.48398680721825
H         6.05238626036217    8.06223978829489    9.13963998856003
C         5.60811923265438    5.86483951633819   10.55084023068696
C         6.45083691515378    6.06722437075224   11.66194511346853
C         7.80451907165117    5.78749435439719   11.54551233733397
H         8.44512167615221    5.94305345346664   12.40206734077652
C         8.36670305090174    5.33465832154955   10.36301847548019
C         7.54152053219303    5.22368587769514    9.25826467792199
H         7.96398043686071    4.93463847952566    8.30571824923304
C         6.18268672690072    5.50074477625642    9.32278103741661
C         5.98619355299397    6.66886458938115   12.94995013211555
H         5.76005223304820    7.72667303445345   12.80731487489948
H         6.75828461951632    6.58734220445784   13.71074830327249
H         5.06710786294868    6.21253605476654   13.34405696345922
C         9.83489331776108    5.05878392334228   10.27213863190735
H        10.38362711492156    5.99844333999766   10.20279278346418
H        10.06729156597855    4.46340698330874    9.39334950019094
H        10.18542855032517    4.53686570458454   11.15982647627314
C         5.44851142729548    5.48711942033168    8.00979974941166
H         5.36529323701853    4.47256130548662    7.61786724548691
H         6.02483251220812    6.05917597369762    7.28220676886470
H         4.46363488782443    5.94066258594181    8.07806730521567

