79
CSD_code = MAZTIT | q = 0 | S = 0 | Stoichiometry = C30H42MoO4P2 | MND = 6
Mo        6.64436015783502    4.26914957192642    4.91307602978137
C         7.64571087388534    2.70937897577037    4.34196338574517
O         8.23191545635604    1.84413303909355    3.87113491741590
C         7.22472879664590    4.92624584958141    3.18248633082533
O         7.66769513948431    5.20823368024933    2.16348225271027
C         5.06891599412127    3.49682952086114    4.04588200398923
O         4.20666718750751    3.05121305278669    3.43960442973238
C         8.30075797586552    4.97312540690991    5.68149978043440
O         9.32679764402974    5.28583808596425    6.08028955934805
P         5.15121611652054    6.17876582406793    5.36666861849413
H         3.84001465971730    5.73161838049898    5.33774610898150
C         4.82553247697920    7.44154737490872    4.00319133163503
C         3.76498522194392    8.44973633373089    4.44549322649120
H         4.07892376471080    8.98886626169122    5.33780885430567
H         2.81829883518418    7.95538636679925    4.65398574114389
H         3.59624686222714    9.17511995054026    3.65054962130910
C         6.09247588635122    8.18299080564000    3.58678965105242
H         6.91722728460943    7.48887632206386    3.42626728802297
H         6.38191512332755    8.91326894442801    4.33822427752915
H         5.91709703554378    8.71500848605241    2.65228525996239
C         4.29676438422428    6.63272464339150    2.81698221913855
H         3.39213811401742    6.08675341183121    3.08702502413074
H         5.04075286989845    5.91564309403083    2.47052627242369
H         4.05735680126754    7.29757380059639    1.98811390988290
C         4.98380958168719    7.13007852934643    6.92469981297723
C         6.08187604077477    7.86197481265875    7.39889358803644
C         5.98487863739531    8.58226726847050    8.58169167339751
H         6.84430529940090    9.14265846186441    8.92343051643895
C         4.81956132598129    8.59156752866726    9.32868309383365
C         3.74499087715540    7.85030263530841    8.86197104075842
H         2.83014982236848    7.83934007933891    9.43803616551947
C         3.79779025674937    7.12107024302316    7.68328747543815
C         7.39403175429019    7.89436628784390    6.67847389586661
H         7.66001882267089    8.91773458100585    6.41448824457862
H         7.36009659696386    7.29355778257662    5.77125796074944
H         8.18437394489928    7.51012884442319    7.32472801398780
C         4.72478322529065    9.38726589737841   10.59362179729845
H         4.55654500731199   10.43891558585455   10.36008718252029
H         5.64911370425552    9.31720164906561   11.16359237778151
H         3.89965072607052    9.04130418350916   11.21146593087517
C         2.56350203805078    6.36130472750871    7.29514313122058
H         1.82999441430621    6.41349172921692    8.09643862743360
H         2.78671988383468    5.31098260618025    7.11840961196503
H         2.10801099587563    6.77963046176260    6.39862375342040
P         6.26109381158732    3.44020137531471    7.19811575741696
H         7.07632383291074    4.14744618748639    8.06584479095506
C         7.01432040097659    1.79455294577266    7.73359459795783
C         8.52435589409636    1.97229365839550    7.55767248420973
H         8.90199481857242    2.77230638988881    8.19489754696902
H         8.77027490867636    2.21219408457781    6.52298617438116
H         9.04410828733526    1.05283516040634    7.82350490883536
C         6.69950838634391    1.51417637622985    9.20269307976351
H         7.06346446585766    2.31689378448409    9.84130397776728
H         7.18615194989687    0.58991449981386    9.51165957663619
H         5.62825347874161    1.40614296395231    9.36354373012069
C         6.54061565174230    0.62767929646068    6.87156167594390
H         7.18920790284919   -0.23354683205951    7.02830574004721
H         6.57642355905450    0.88505388403574    5.81276278753642
H         5.52737031413027    0.33286650197187    7.13172727975562
C         4.74545382597082    3.60239806348933    8.21550278714741
C         4.70791124319154    4.39999802799180    9.37492969251123
C         3.53352616199688    4.46744164141302   10.10840844781129
H         3.51155526483936    5.07918560051414   10.99954018272104
C         2.38540317673956    3.77989471623757    9.74229149865746
C         2.42622694898748    3.02047648789567    8.58644060688494
H         1.54319195946434    2.48632776621162    8.26329115376147
C         3.58089443504309    2.93110786938792    7.81966731509561
C         3.51941615465818    2.11767068283460    6.56435753268268
H         3.23508628101962    1.08920928842878    6.78585326125238
H         4.47991682531713    2.11702486569350    6.05176537798270
H         2.76403380990572    2.52584879320179    5.89109526273588
C         1.14609063879778    3.85310282024144   10.57937907946891
H         1.05170137842967    4.83000218558224   11.04857179055350
H         1.18848694282762    3.10456147546183   11.37126287591133
H         0.25970338236113    3.65939623083499    9.97990168639390
C         5.87520359303411    5.20126289795926    9.87233064564562
H         6.28079377569166    5.83449024058970    9.08504068852202
H         6.66843231975864    4.55489375604096   10.24727131381498
H         5.55900660167923    5.84732523499360   10.68812470363347

