35
CSD_code = MAZTAK | q = 0 | S = 0 | Stoichiometry = C16H16N2Zn | MND = 3
Zn        4.10710555967345    5.89336738040768    8.55627319807581
C         4.46303714815650    5.78498346337679   10.52748733065268
H         4.94819386758193    4.86088577172046   10.82628124600003
H         3.54875682615580    5.85376891667678   11.11104778943494
H         5.10492394965986    6.59229934936897   10.87033160103769
N         3.25083098490607    7.26393290129919    7.46019578559061
N         4.45349217215257    4.74650388144212    7.01313796662075
C         2.79633631112678    8.40318558362433    8.24016784747288
H         3.13648415599135    8.26839064491949    9.26631625735790
H         1.70421834379037    8.47924928595251    8.25485400451676
H         3.21284359151902    9.34352465566982    7.86578611643039
C         5.13503400911182    3.51229684899710    7.36728614220308
H         5.21246956145697    3.46693558516100    8.45283757407084
H         6.14895138116932    3.47239827575481    6.95600829434654
H         4.58009414086987    2.63096393368042    7.03075064132238
C         3.00408981403351    7.22746370276407    6.15743532798005
C         2.24546108249650    8.29631368994136    5.56202656760672
H         1.86156828452126    9.07317568858803    6.20065243072249
C         1.98021314598379    8.37140415981955    4.24364053331160
H         1.40241113558819    9.19337496765963    3.84371686211986
C         2.45486254613530    7.37592334828753    3.35576831767197
C         2.19023353194495    7.47439075845013    1.98966475617685
H         1.62306365882012    8.32343741060532    1.63449713492357
C         2.63731043677288    6.51707895471357    1.10177128502635
H         2.42776913810590    6.60485113354116    0.04620528994820
C         3.35752208880088    5.44563357090329    1.58929852924585
H         3.72094331246768    4.68232964871697    0.91551173973678
C         3.63393342625623    5.31739358436561    2.95069954669336
C         4.37931968821227    4.20995073137676    3.42198551442814
H         4.73772175025141    3.48135706541381    2.70775427521694
C         4.63579949537835    4.06597109210063    4.73649435004177
H         5.20986138459929    3.21061614337170    5.04869204737043
C         4.19091309348808    5.00013994995931    5.73733796051155
C         3.46751989192019    6.16826697201237    5.29087603122770
C         3.19101109090157    6.28484094935785    3.89390970490657

