61
CSD_code = MAZVAN | q = 0 | S = 0 | Stoichiometry = C22H32NO4PW | MND = 6
W         6.81338654424409    4.34498687603385    3.76716845394917
C         5.81942296758657    3.26009130834980    5.10237277175092
O         5.16879852971218    2.66604548600078    5.83532744281436
C         5.10828840550441    4.72732183787041    2.87013293667633
O         4.10931424172483    5.00104557027131    2.37084932739637
C         7.71250382103737    5.51758909486443    2.43878320813434
O         8.12800834372541    6.28279412606727    1.69108515081418
C         6.51172057104723    5.95456534041766    4.86386180727273
O         6.29139832206253    6.88940001683085    5.49027533108588
P         7.17317827507669    2.22091925082834    2.55392205779787
H         6.29531070601401    1.22938609225372    2.95599005019448
C         6.73800655714707    1.95602848429194    0.73384809648006
C         7.42244558631738    0.70447699597624    0.19082379574578
H         7.07159918099399    0.49801444206132   -0.81942278748379
H         7.19675033686265   -0.16039946679723    0.81393132082464
H         8.50332143664678    0.82675899956468    0.15890227337057
C         5.21672434246656    1.77175188324011    0.73660269454767
H         4.93245126275539    0.83528266394571    1.21489748449755
H         4.83455904270128    1.76085038551899   -0.28274844664540
H         4.73862537828852    2.59297150084102    1.27145009466253
C         7.06664299573299    3.18081835384506   -0.11481133293321
H         8.13384439829283    3.28838980977020   -0.28409064864708
H         6.69117662683108    4.08282066921347    0.36941789297022
H         6.58583003566931    3.09528696276936   -1.08839127596463
C         8.70743354682880    1.28086453516118    2.91622944275009
C         9.94668214815158    1.79283149431564    2.50083525340919
C        11.12488507273954    1.15525595100681    2.86326479480512
H        12.06758743237076    1.56325174190867    2.52438987652886
C        11.11675819415520    0.01337986723295    3.64732677789443
C         9.88990673158309   -0.46931370378024    4.07829255849864
H         9.86848248377657   -1.35015239211927    4.70466277538400
C         8.69070008577796    0.14091319498628    3.73971873210968
C        10.04594477563541    3.02755446055860    1.65667094672256
H         9.13100820315887    3.61791233669387    1.71641627727916
H        10.21774204386526    2.75785355554395    0.61396009016337
H        10.88801949150095    3.64462961505386    1.97102520327546
C        12.39572975611852   -0.65429558537795    4.04692383414171
H        12.82744648225479   -0.14881332072965    4.91190756020749
H        13.12226925489998   -0.61179459758941    3.23839560348402
H        12.22412155969729   -1.69387430414668    4.31451162495260
C         7.42821367095862   -0.45533612181132    4.29162768398352
H         7.66718821893513   -1.27021739492157    4.97149508727763
H         6.80322555969742   -0.85802528105834    3.49457091885904
H         6.84643729681177    0.28340839084346    4.84315282705279
N         8.86226697426289    3.92614854249721    4.83637462698842
H         9.39724711241010    3.36752462566513    4.16569497803996
C         9.66036458125617    5.12646811518426    5.10149776487713
H         9.14465777036327    5.71901594184984    5.86370059059002
H         9.71609064226965    5.72339308866236    4.18641939023241
C        11.06982088677962    4.77667006214061    5.58213678886431
H        11.62897287072425    5.69278318110268    5.77668321348411
H        11.59457606189346    4.22282802406330    4.79805031841155
C        10.99367056050993    3.92092803456692    6.84309144417585
H        10.54351033393402    4.50331542811348    7.64994624550847
H        11.99469636488494    3.62455904995119    7.16177950649019
C        10.13766522362084    2.68816372688150    6.56822391291016
H        10.62561130191224    2.05768907403696    5.81871410758324
H        10.01932632157550    2.09603443411884    7.47669832981134
C         8.76264650041970    3.11009542895056    6.04859166996384
H         8.23571230018077    3.69259079468459    6.81117598410376
H         8.17167427564323    2.21756332173402    5.82366555987297

