93
CSD_code = MBACNI | q = 0 | S = 0 | Stoichiometry = C47H40NiO3P2 | MND = 4
Ni        5.63275889720866    4.50242124038505    4.03464263923765
P         6.42040816977195    2.42189659313133    3.79375894697852
P         4.50593349544252    4.62848746098910    5.90744954301520
O         3.62765530452376    5.56893840659073    1.05309038655301
O         7.59766696412492    5.75182569295193    4.11951669984468
O         8.46672940718991    5.09147151586739    2.14734482408434
C         3.82089553413904    6.18174366528658    2.09523247974732
C         5.08325299376162    6.09909018128907    2.83954798114293
C         6.13488155076153    5.34161122090043    2.31085633000405
C         7.43610081363029    5.42005593784822    2.94384934281275
C         9.74457906259018    5.10630360925984    2.75737030364101
C         2.77160684109823    7.09778184954000    2.63353906032534
C         2.69078453983664    7.45021871751205    3.97722489570822
C         1.67739309453381    8.27693975367469    4.42273286327628
C         0.73749239264194    8.77012159423355    3.53237403270440
C         0.80746365816584    8.42263843947073    2.19268732904948
C         1.81297948495776    7.58644061071463    1.74801507425318
C         5.25664728704275    1.06623921299728    3.42216085394686
C         3.90739644205091    1.29733351951216    3.66091198405968
C         2.97073796101148    0.30790724458036    3.42513508015497
C         3.37898260678069   -0.92218338532259    2.93723574761142
C         4.72055748514650   -1.15274888545630    2.67541883148723
C         5.65878793000814   -0.16453403391435    2.91237338913900
C         7.69698792992322    2.07519452609780    2.53380923739883
C         7.30242467525364    2.15302831543508    1.19978548490330
C         8.22013944763416    1.95803330689595    0.18720558286707
C         9.54482394984873    1.69014415976359    0.49623518146381
C         9.94375468382806    1.61689694564589    1.81952566588741
C         9.02622594171888    1.81141491859187    2.83801744403788
C         7.26931581703542    1.83731430024285    5.30497586525406
C         7.35989732481636    0.50975129220938    5.70185900458863
C         8.05430477573453    0.18119658755050    6.85269337484468
C         8.66092682315121    1.16858731463248    7.61088962117471
C         8.56592513316317    2.49528210388923    7.22401771438981
C         7.86815827339998    2.82782106140497    6.07899459278772
C         4.50781952903490    6.25856007662316    6.74313602782445
C         5.67568946501576    7.00795926550762    6.61709521337292
C         5.77699837676139    8.24944264683973    7.21724602851842
C         4.70970191360255    8.75704057280607    7.94027090963147
C         3.54272117443055    8.02003965993389    8.05835820581007
C         3.43749730005507    6.77439614152976    7.46443150752031
C         2.72615100685544    4.22634171084413    5.81893215969766
C         1.97361196859925    3.87324975574576    6.93498269474260
C         0.62078131521468    3.61711008247943    6.80354162476741
C         0.00813565384803    3.70809049124483    5.56343665416283
C         0.75508237099788    4.04058498749919    4.44600264088239
C         2.10838080198852    4.29288547628062    4.57501135550445
C         4.99426337407225    3.55246983174330    7.30513177032129
C         5.64792079464640    4.03283481472654    8.43276011452595
C         6.02718881155773    3.16346414905444    9.44065305689811
C         5.76407830891171    1.80950742986253    9.33080474464420
C         5.12360641913598    1.32216527372684    8.20283111146026
C         4.74666912756656    2.18645889712095    7.19433563215180
H         5.31569768498092    6.91999093664249    3.51786708627384
H         6.05427013269729    4.86856841839961    1.34089279661792
H        10.43727819898989    4.70696227375486    2.02087680897156
H         9.74454954509916    4.48652759794194    3.65699831418761
H        10.02200694775807    6.12725044637511    3.03157307830896
H         3.40352143891494    7.05817217492981    4.68662935924723
H         1.62353415978729    8.53508142990915    5.47070208524057
H        -0.05137337123634    9.42010969488020    3.88253852552283
H         0.07324495309878    8.80191808595950    1.49671591054201
H         1.87736250962969    7.29600109380045    0.70956130783715
H         3.60028845748350    2.27221284374596    4.01910453614877
H         1.92480611353872    0.50031246586342    3.61553085360605
H         2.65224429055588   -1.69881184893220    2.74900011602878
H         5.03636279341502   -2.10789774763426    2.28078947105088
H         6.70145216667150   -0.34294405194543    2.68760085811110
H         6.26616750514378    2.36359943103992    0.96778077914323
H         7.90690807020260    2.01928810432707   -0.84477047694465
H        10.26538696856184    1.54139509909782   -0.29473979357302
H        10.97628942723552    1.40923297083022    2.06286783911889
H         9.34481406956169    1.75509587416531    3.86991699684301
H         6.88184917116853   -0.26510354584836    5.12081446592055
H         8.12215127696959   -0.85249120243843    7.16030446188978
H         9.20212687818589    0.90430211482327    8.50756882899038
H         9.02994308116802    3.26828618013346    7.81880068050677
H         7.76837645709813    3.86457698134714    5.77425741580915
H         6.49448428072727    6.61029971406324    6.03065129632068
H         6.68550626940563    8.82508137714661    7.11580894319689
H         4.78344443101115    9.72935688523611    8.40514683377177
H         2.70699518235603    8.41888830140213    8.61565538540964
H         2.51787040874735    6.21441713291197    7.54954941202105
H         2.44999683072116    3.78806387393387    7.90197091877883
H         0.04020527525240    3.34547086720715    7.67356346348889
H        -1.04973024735631    3.51103425634234    5.46932023094649
H         0.28779088609717    4.10172989649227    3.47445053370216
H         2.70318482159154    4.53339944037707    3.70244798686269
H         5.86061578449341    5.08797862858341    8.52512739863430
H         6.53064588443200    3.54678436247437   10.31646669646153
H         6.06022160128110    1.13375377115122   10.11948928119159
H         4.92172143939530    0.26521259665769    8.10825406492219
H         4.25381381892578    1.80542681630168    6.30977640788375

