65
CSD_code = MBPRNI | q = 0 | S = 0 | Stoichiometry = C22H34N4NiO4 | MND = 6
C         1.95919292094962   -2.69603757164874   -0.28632660994813
C         2.49381350466894   -2.11379240426838   -1.59327508356415
C         2.54904935700376   -0.58790522975011   -1.61448971671522
C         3.10879526671165    1.02037436264298    2.70132856713623
C         4.12963541642074    0.25083486826566    2.15599174347351
C         5.41443439820896    0.34781816642909    2.65103753017745
C         5.71203113372897    1.21536838692446    3.69743507160641
C         4.68727046015618    1.98007717710902    4.23999176155459
C         3.39836361067186    1.88280640163110    3.75107940431849
C         1.69422108180642    0.93032479126978    2.18782118031505
C         7.11536768721242    1.32001117311576    4.21324889084464
N         0.54663252156304   -2.37094329077895   -0.10216127318901
N         1.20897451856354   -0.00477452457573   -1.62328207550350
O         1.55219444669151    0.32445541818839    1.08744486721288
O         0.78830357789710    1.44695297756140    2.85960321792645
Ni        0.00003471539878    0.00026618453782   -0.00010665420905
H         2.51198156441397   -2.27992254844960    0.55976788564449
H         2.12599949455000   -3.78699085306039   -0.30324536680369
H         3.50144500944711   -2.50071324922814   -1.75905175276764
H         1.85944096980481   -2.45262616629849   -2.41618228486020
H         3.08951319755288   -0.21866354056476   -0.73928610980534
H         3.09924864352474   -0.27799667530264   -2.51618617492410
H         3.90319195460139   -0.42831420259858    1.34781331942706
H         6.20280672932718   -0.25694426362762    2.22405393867832
H         4.90120163637028    2.65697350725875    5.05548813514273
H         2.59704154696169    2.46983787313669    4.17466789387708
H         7.52682113478319    0.33086670272587    4.40772536270754
H         7.75221677210928    1.80502653165357    3.47308951570090
H         7.15158214821015    1.90168317749946    5.13095740922115
H         0.17745125973757   -2.89297567570505    0.68762051950429
H         0.03048916746627   -2.65329172219487   -0.93462433339345
H         0.61285352958314   -0.54702583420478   -2.27681837914346
H         1.25655133851201    0.95901356760759   -1.94798061902600
N        -0.54660134075499    2.37140453909691    0.10194011186325
N        -1.20891592449293    0.00527663981630    1.62308897894740
O        -1.55213334901457   -0.32422070278582   -1.08758966015018
C        -1.95917371473308    2.69647317349135    0.28607206950472
H        -0.17740918862608    2.89343653191600   -0.68783713562922
H        -0.03048356745888    2.65375626199781    0.93442148392151
C        -2.54900928864246    0.58835863333891    1.61427629386867
H        -0.61285838692990    0.54759667600821    2.27661887822403
H        -1.25644919655535   -0.95849636622832    1.94783132079537
C        -1.69418811135782   -0.93009634113424   -2.18790615797716
C        -2.49381099978454    2.11424640759386    1.59302279478720
H        -2.51194473309209    2.28032860654202   -0.56001976235028
H        -2.12599871608978    3.78742368620257    0.30297168157947
H        -3.08945650365494    0.21908047444928    0.73908067239538
H        -3.09920369991505    0.27845076842048    2.51597778074616
C        -3.10877407028967   -1.02039322530173   -2.70133252752991
O        -0.78815720943496   -1.44631161072961   -2.85998063269116
H        -3.50145329354739    2.50115072804890    1.75877200756730
H        -1.85945696717147    2.45311050562300    2.41593019720213
C        -4.12969888412822   -0.25094013513586   -2.15602342772294
C        -3.39829024852292   -1.88305202677699   -3.75091551519096
C        -5.41454562711256   -0.34827041614743   -2.65088766490360
H        -3.90330725884227    0.42834157871535   -1.34794665468122
C        -4.68725382824249   -1.98067501188653   -4.23964043745990
H        -2.59693330695693   -2.47007972441741   -4.17443784527764
C        -5.71209602652216   -1.21607788363072   -3.69708028301244
H        -6.20297497284642    0.25643023869543   -2.22392258303020
H        -4.90114603361918   -2.65777492823586   -5.05497156048754
C        -7.11547179231461   -1.32110289999937   -4.21270176934343
H        -7.52717124450187   -0.33207628791296   -4.40726121939201
H        -7.75209834091364   -1.80615356069966   -3.47237805712955
H        -7.15168488853914   -1.90291784422700   -5.13032115806402

