68
CSD_code = MBYPTA | q = 1 | S = 0 | Stoichiometry = C20H41O4P2Pt(1+) | MND = 4
Pt        2.61558117170512    1.50311311447911    3.28933058152015
P         3.63217333407187    0.71633830996862    5.16461415104969
P         4.48895090400549    2.41620982838105    2.15746464158821
O         0.67201966363062   -0.31213415420198    1.70880657541402
O         1.46707803235121   -1.43691444139035    3.48881330266802
O         1.43364058814582    2.28886346643503    1.64736864622653
O        -0.70438163930048    2.35444252357680    1.01855549474500
C         0.73334122221046    0.77726887194719    3.84045333518965
C        -0.20574598004112    1.76184878490843    3.25902200293710
C        -1.28828573366437    2.32881412353013    3.80870144831428
C        -1.79052323472598    2.13266463623687    5.19108491548726
C         0.94233622629519   -0.34010361227257    2.89549109380864
C         1.61637047296706   -2.57616909443350    2.64862856032250
C         0.23141497739020    2.12425903973209    1.89856301231944
C        -0.28673731096549    2.67831830409206   -0.30459211358309
C         2.64880527917381   -0.31203542589056    6.33532346346151
C         3.45885088665909   -0.96848244287943    7.44849934146138
C         4.15860213459721    2.16064532590272    6.17523033238432
C         3.09000735916260    3.24717297409954    6.09841669097429
C         5.16631223032468   -0.24783003726446    4.86222857457966
C         4.85794127220752   -1.46990337598183    4.00568237430871
C         5.95903671159503    3.14601888158941    3.01591074873484
C         7.01974990385065    3.76241740064358    2.11131433980532
C         3.96466470835736    3.75484265194593    1.01206279001730
C         3.36385389023897    4.93025914319064    1.77393892180155
C         5.19857134338478    1.15743953509863    1.01724223864651
C         4.07405710449714    0.35990405541861    0.36285413410173
H         0.49268814361384    0.44158388705787    4.84362991220046
H        -1.85112160603633    3.02934873255656    3.20614747652919
H        -1.21665738238233    1.39551621434194    5.74362848356388
H        -1.76858246673334    3.07929180435047    5.73141855351069
H        -2.83124730877793    1.81275713026887    5.15107089213163
H         2.30450509840903   -2.36584734023294    1.82795581822660
H         2.00710390624481   -3.36997223700435    3.27959256103432
H         0.65045005287799   -2.86273661532251    2.22957994957303
H         0.31519777156975    1.86284237704884   -0.70958150681598
H        -1.19687921934758    2.80318155743919   -0.88471140331074
H         0.29710435717431    3.60130287788879   -0.30449415548706
H         1.90061229035660    0.35761751554278    6.76875822756519
H         2.12565923583606   -1.07249721238443    5.75348024587480
H         4.09477516387536   -1.76077458806178    7.06431014010930
H         4.07927100360182   -0.24913507892201    7.97821865781472
H         2.77740575442632   -1.41343322912630    8.17000940110817
H         4.32033105371168    1.85139065765362    7.20937486106689
H         5.10515298224877    2.53222491345480    5.77986498046851
H         2.16970607968540    2.92024350590659    6.57681298353578
H         4.82036798922865    4.06774970260012    0.40885312794235
H         3.21529533060576    3.32645883793441    0.34449552805912
H         2.54028727061632    4.58764815578936    2.40166321514917
H         4.10443049511222    5.41069137514238    2.40959956951416
H         2.97837413746995    5.67565432180640    1.08193534914738
H         5.81406098398425    1.64448988529256    0.25756017730239
H         5.83900311991192    0.49512660895053    1.60608780173092
H         3.55325371321538    0.95936198186954   -0.37952494416479
H         4.46365195592305   -0.52732188159189   -0.13114194780242
H         3.33943140312439    0.04739007137683    1.11075266048765
H         3.42558028003634    4.15573840107924    6.59204477501024
H         2.86903258464064    3.47876924668527    5.05046333725504
H         5.86969389457991    0.40447883856585    4.34016797031191
H         5.61170423007925   -0.53008413395109    5.81822390264358
H         4.34361814236201   -1.15939972759432    3.09682540469020
H         5.77290778351567   -1.98876661030001    3.72994815466801
H         4.21573561228509   -2.16610912301297    4.53804006026037
H         5.58094338015160    3.89952725923855    3.71203219878909
H         6.41203479925872    2.35005797141745    3.61187795658907
H         6.63857160602394    4.62995772396474    1.58049767070408
H         7.86140000409040    4.09065264622604    2.71759032333924
H         7.39116085530802    3.04185518916532    1.38753203138896

