24
CSD_code = MCBCMN | q = 0 | S = 0 | Stoichiometry = C10H11MnO2 | MND = 8
Mn        4.92899881486427    0.80830891589770    7.42906680571870
C         6.19518399428883    1.97699931522639    7.83895131403625
O         7.02355633201614    2.73868639519903    8.09182133079440
C         4.92900125820912    0.91187775689121    5.27552675260149
C         6.06968166019149    0.20202135673353    5.70659435073147
C         5.63265930685667   -0.95791770106532    6.39217790105634
C         4.92899779351013    0.18960618737553    9.20710528680738
C         4.92899828142459    1.03549640572763   10.45944239158868
C         4.92899976222278   -1.25979944593304    9.62055662279524
H         4.92900155403073    1.76749510015661    4.61463840817021
H         7.09111437477770    0.41126556001756    5.41538115739347
H         6.27250749836746   -1.77311554679916    6.70398044504532
H         4.92899877603706    2.10491377859786   10.24520644083044
H         4.05080663940387    0.80096609225946   11.06398666343516
H         4.92900063214967   -1.96705769671906    8.79800101969155
H         5.80677164456060   -1.45557425405763   10.23978412124513
C         3.66280002361645    1.97699616481919    7.83891905361575
C         3.78832048948604    0.20202154679817    5.70659303272161
C         4.22534240720412   -0.95791794152768    6.39217668466964
H         5.80719039848248    0.80096573368125   11.06398580508955
H         4.05122863491587   -1.45557669525228   10.23978439377194
O         2.83445814628626    2.73868833454700    8.09186151047797
H         2.76688790651331    0.41126635837317    5.41537976460205
H         3.58549367058441   -1.77311572094714    6.70397874311030

