40
CSD_code = MCBCCR | q = 0 | S = 0 | Stoichiometry = C15H19BrCrO4 | MND = 6
Br        2.06607357327993    1.79662337063915    2.84626374544937
Cr        0.56677926312296    3.11926119818870    1.46175806546725
C         1.17752975346912    4.78339851746938    1.93745814019533
O         1.54910709596807    5.84652456790342    2.14945847063638
C        -0.88065701585939    2.37068910928195    0.07967485749689
O        -0.51468027857750    1.31827898775398    0.52420457513399
C        -0.71766732982985    3.06991511384022    2.88843248835683
O        -1.37889715118550    3.09532962925015    3.81138255512005
O         2.54071030731107    3.67636235314888   -0.75682250646377
C         1.82641629964248    3.33571831199954    0.06242281879682
C        -2.01939705221660    7.08514221792149    2.19085528870572
C        -3.84745974159679    5.81405881088601    1.04893337406863
C        -0.94058834875022    3.63664930644853   -0.02188318123614
C        -1.48646140041337    4.72616935505965   -0.84685365184946
C        -0.60764667659100    4.88701767580511   -2.10244711014085
C        -1.13551652619949    5.98963942562444   -3.01881205156218
C        -1.20413590803891    7.29996355567688   -2.23694896688706
C        -2.08710465700453    7.14526475962492   -1.00278124410418
C        -1.54547237086110    6.05733807123426   -0.07400839619562
C        -0.24889724789182    6.12784178691208   -4.25291057107951
C        -2.33670427043329    5.92832226444638    1.24429904736003
H        -4.32360496701990    5.59410875551208    2.00194674536832
H        -4.26321169395321    6.74570023064471    0.67454419062193
H        -4.09917499354213    5.01403128287735    0.35678294749464
H        -2.50063608289030    4.45449052420473   -1.16918297833934
H        -0.57241674417616    3.93764379930544   -2.64334725319606
H         0.41030490120222    5.13691663244560   -1.79253068335574
H        -2.14787622291894    5.72155406264035   -3.34317758430675
H        -1.60272444920235    8.08989254849953   -2.87645293572817
H        -0.19634118864310    7.59237979539842   -1.93367705499154
H        -2.13160509877425    8.09470714149806   -0.46866900818494
H        -3.09831642271605    6.88849424051295   -1.32308283748518
H        -0.51484243351741    6.31842776233091    0.19550172199770
H        -1.99075241663214    5.00412287710571    1.73025886893123
H        -2.50856936208456    6.92879496803478    3.14941149492833
H        -2.37166389738929    8.02940223385186    1.78355120202198
H        -0.94833324149813    7.15983128455646    2.36318227473742
H        -0.63240289978870    6.90424243574839   -4.91056388056998
H         0.76589762269555    6.39305392275715   -3.96460356044377
H        -0.21466072650531    5.19349711296057   -4.80856741676991

