32
CSD_code = MCENCO | q = 1 | S = 0 | Stoichiometry = C6H18CoN4O2S(1+) | MND = 6
Co        3.14486022774913    1.00231968179702   -1.64195603140956
C         0.86393117900792   -0.56816143243802   -1.15182133909744
C         1.75684569467186   -1.30235182850701   -0.13859590187911
C         5.87875674110471    0.53087288286919   -2.23035855854006
C         5.10911989431357    0.10234792019645   -3.47338584072690
C         2.25102383464272    3.75123502292904   -2.15131824621503
C         1.58691927317626    3.24148165009634   -0.87784691432030
H         5.40403695608595    1.63227473110992   -0.58457946220925
H         5.24213469448584    2.45826586366131   -1.98754455497919
H         3.81229788077668   -1.16512058057443   -2.54015795862770
H         3.12276208056140   -0.38002749361492   -3.80148393441260
H         3.10617212625855    2.86439465748596   -3.79442354094446
H         1.70130392203236    2.17814877813540   -3.30938858919373
H         3.23115191527826    2.73991721993565    0.24215270447956
H         1.96824305772421    1.73120258611123    0.45131104554547
H         1.30724014381820   -1.23369001336505    0.85290055487980
H         1.82203691156771   -2.35463130995741   -0.41863367126424
H         5.98076226112214   -0.32245238132758   -1.55718343890950
H         6.87407310528422    0.90165736257012   -2.48872593030098
H         5.60988568475449   -0.73383961852968   -3.97021860453824
H         5.03913624249021    0.93370670877007   -4.17909736391687
H         1.58151650041832    4.44445624520804   -2.67048055046685
H         3.17529945567068    4.28325695302919   -1.90736612069991
H         0.65552972495105    2.73484299210120   -1.14001483939573
H         1.36372314862972    4.06698559732220   -0.19631612070993
N         5.06826087322460    1.55683635142457   -1.54359001219480
N         3.76145187031546   -0.25813869947298   -3.01491044297662
N         2.57920689341706    2.57711776591789   -2.97288925916589
N         2.48616870916355    2.25264833957849   -0.25834961276208
O         1.41495029418897    0.38912236412083   -1.82386379748650
O        -0.29043486551956   -0.88186635250243   -1.29465576255138
S         3.41473356863394   -0.59861196408064   -0.08750790500986

