64
CSD_code = MCPERH | q = 0 | S = 0 | Stoichiometry = C30H32PRh | MND = 8
Rh       -1.79168591090270    3.82556588970938    0.67636841332625
P        -3.26805222674472    2.24147894326449    0.10234567700698
C        -0.74816513911047    3.64988910576018   -1.02177012285853
C        -1.11642244513023    4.01823839569290   -2.23870246421014
C        -2.21238334541049    4.28644409822927    2.91015060761490
C        -3.01227670870308    3.54548273765881    3.93652022422550
C        -2.65412129248970    5.32411207604981    2.09651160206266
C        -4.01529652100612    5.94399751114071    2.07015969764168
C        -1.50816939853654    5.86484993984565    1.36380907687300
C        -1.56999585117209    7.09285734262568    0.51189077062621
C        -0.37030965122519    5.14128647008422    1.73942805717329
C         1.05123120178997    5.46428344332463    1.39490894032342
C        -0.74628597084198    4.21222810255257    2.82079916478562
C         0.07466069692028    3.42120220677007    3.53876672826687
C        -4.95873150106639    2.74972134013300    0.56067912514465
C        -5.49262507067553    3.81882121385092   -0.15816021876378
C        -6.72682874189317    4.34202047670307    0.17394270932601
C        -7.43238066712412    3.81791799841928    1.24697122249365
C        -6.89522019168259    2.77570121206812    1.98326186717924
C        -5.66197680155195    2.24275005266612    1.64602943209126
C        -3.02949167760052    0.67992490662249    1.01742010078469
C        -1.92019640419827    0.57907280857005    1.84751742766912
C        -1.68440460638062   -0.58320836673884    2.55985956404546
C        -2.55673213655344   -1.65249647709376    2.44028202879820
C        -3.65695017445715   -1.56239476132043    1.60104911109566
C        -3.89330390102896   -0.40259511522824    0.88651674805813
C        -3.51227169615361    1.51576489519055   -1.56064352802552
C        -2.37244641200642    0.96784349961359   -2.14359523455261
C        -2.43672766948627    0.37902951316490   -3.39065293552439
C        -3.64340889064433    0.33358594458621   -4.07175390438228
C        -4.78083060057341    0.87179856024994   -3.49580290936304
C        -4.71984028027687    1.46080461034170   -2.24383776321768
H         0.28832416198142    3.30178479087066   -0.89985758277047
H        -0.44244485831247    3.99214076712560   -3.08871088600367
H        -2.11859951179509    4.35520122333294   -2.46761902797651
H        -2.87973107945366    4.00980216034130    4.91622173164932
H        -2.69006528336434    2.50789044912135    4.00784617243195
H        -4.07197301379765    3.55761629823109    3.69009789738503
H        -4.00448165680054    6.86198423470251    2.66124230007280
H        -4.76523931951280    5.27574119787812    2.48698787163943
H        -4.31103443953166    6.20167196982118    1.05446606991435
H        -1.67592491946990    7.97446018253786    1.14727259190886
H        -2.42474248768306    7.05681366682350   -0.16244196284030
H        -0.66681962862709    7.20110114517796   -0.08318162066693
H         1.47145120969182    6.13314450795404    2.14917863734379
H         1.11814825221946    5.95002928659750    0.42428597207097
H         1.65691876205617    4.56082514216453    1.36772393516025
H         1.14066510020078    3.43177122322716    3.39346879999003
H        -0.30256336857213    2.75812837558748    4.29817308046802
H        -4.91661599215497    4.23140633954634   -0.97796582875049
H        -7.13969431080381    5.16346360234328   -0.39408337360156
H        -8.39547299594538    4.22825497521120    1.51322984901708
H        -7.43851435061951    2.37600348708453    2.82788037335528
H        -5.24635955465484    1.43228602348616    2.22804786322586
H        -1.24243707562398    1.42729131795119    1.91545996524452
H        -0.82128219545511   -0.65836963987865    3.20557431823532
H        -2.37742731508284   -2.56117237640942    2.99637164079612
H        -4.33031989785143   -2.40185870307168    1.50339351291034
H        -4.74546882955238   -0.33090612685212    0.22410298785520
H        -1.43695627846951    1.01908875187342   -1.60259210929001
H        -1.54762757833388   -0.04212945833404   -3.83675938374612
H        -3.69643839397425   -0.12129712744955   -5.05012437355893
H        -5.72360940163013    0.83290826959977   -4.02292320865592
H        -5.61622376317594    1.87364546893562   -1.80273542855126

