25
CSD_code = MEBCAZ | q = 0 | S = 0 | Stoichiometry = C11H6CrF4O3 | MND = 9
Cr        1.55022821869962    1.50981331007824    2.97858009001062
C         2.82065725829250    2.98217526897165    3.80212563731145
C         4.03263949314662    3.52292947695104    3.56957013283246
H         4.44545155944537    3.56450396243121    2.57430113816934
C         4.88002070601755    4.10280808885050    4.66129964933746
C         3.22823687909419    0.84604617253924    2.62566242253319
C         1.61330970670338    3.32692813084689    2.66038355131844
C         1.77527031498802    1.69624423101229    1.17840172791385
C         0.84507358557080    0.56302278525374    4.90347027357636
H         1.36099365159897    0.50672022923096    5.85016783544689
C         0.84089303966513   -0.43363281657767    3.90673680550651
H         1.34043238008540   -1.39021417043536    3.96650984851722
C        -0.08304473270466   -0.04981392022333    2.90965122687245
H        -0.40453176778260   -0.65980189295412    2.07770993155072
C        -0.64332540584548    1.19031221803402    3.28944623523142
H        -1.47035735343516    1.68301522299944    2.80014213052551
C        -0.07191818461272    1.56224284555436    4.52426626338634
H        -0.37620521471417    2.40107137124084    5.13349172597082
F         2.36398842093559    3.03214870564540    5.07743422566213
F         4.29995154212494    5.14044853879335    5.28450077998002
F         5.16741035728407    3.20445248717457    5.62047511230055
F         6.05160710100105    4.54435411977257    4.19013607494282
O         4.28050248537052    0.48837651182525    2.34867613199951
O         1.41401115657349    4.42531118302437    2.31378150588083
O         1.98810480249753    1.88163793996035    0.06547954322304

