16
CSD_code = MEBCUU | q = 0 | S = 0 | Stoichiometry = C8H4CuIN2 | MND = 2
I         6.13587185902059   19.06710041700203    1.48519647929213
Cu        4.10886366364063   17.71114031486400    1.50479749370454
N         1.65034811751462   16.02531424060084    1.51951499604564
N        -2.84739566065863   12.92224079983663    1.54764950151844
C         0.53989374199808   15.25942367235010    1.52541044710978
C         0.64433030776424   13.89549004104745    1.81191201841321
C        -0.49047323086689   13.11527234976586    1.81821275338536
C        -1.72998028531515   13.69334827386276    1.53907237865476
C        -0.70040340303802   15.83939737522220    1.24474601644588
C        -1.83267197910685   15.05548657036904    1.25208560971064
C         2.60976661936922   16.69547339789354    1.51480709135848
C        -3.80613220062925   12.25589993304405    1.55673212524573
H        -0.43163356656554   12.06021035663261    2.03724548303978
H        -0.76059840900190   16.89428171139709    1.02535028272109
H         1.61084763950780   13.46576640167504    2.02567990120910
H        -2.79983321363486   15.48385414443877    1.03828742214810

