57
CSD_code = MEBFOO | q = 0 | S = 0 | Stoichiometry = C24H25BN6Pt | MND = 6
Pt        4.08993260465340   10.69434439871680   12.76240790560035
C         2.14359514322441   10.02135111522368   12.73334417882462
C         4.23971313077620   10.31726016181928   10.74178662530068
C         3.41425179742649   12.61773468275486   12.46029407354474
B         6.35721787993423    9.89465778997496   14.91616099572896
N         6.92214699541519   10.87360465174504   13.87425699808102
N         6.16548632186272   11.34956234097330   12.87543789035338
C         6.87459403394299   12.16539376006726   12.12629793258939
C         9.35158861653957   12.93825927196316   12.28503920368407
C        10.46522326044272   12.75647848833519   13.06330620611416
C        10.44306966619541   11.90889268740814   14.18340387741595
C         9.31294072271193   11.22405988319294   14.55407461784873
C         8.16801838018215   11.39733507991643   13.77304487740176
C         8.18446440909735   12.25245071802399   12.63908339900438
N         5.16565918783675   10.57092734336346   15.61002504098527
N         4.09656562977560   11.00317861365883   14.92557829055933
C         3.24215498676374   11.57227816671387   15.74828334037891
C         3.30752379665832   11.94938085215894   18.31897679782206
C         4.11634403558800   11.71054332772440   19.39947672182740
C         5.35282103383106   11.05928994007758   19.25607017050623
C         5.81155183278641   10.63137396339111   18.03545503009681
C         5.00053339406968   10.86572725100583   16.92252249044145
C         3.75006236294620   11.52376450527231   17.06160952843172
N         5.85019920939655    8.64845822963067   14.17562380382867
N         4.90982866550962    8.72233696212082   13.22254825472785
C         4.68689080226528    7.52556497189908   12.72382666126801
C         5.71694380256433    5.20407474648900   13.27570030999929
C         6.64402010047823    4.63282005338179   14.10811793713459
C         7.37051975716293    5.40419031525859   15.03047990318968
C         7.19125128437341    6.76002513672141   15.14470325470859
C         6.25071174019411    7.36005947931129   14.30410130760707
C         5.51312391897456    6.58516715741908   13.37050571227055
H         1.54562668802654   10.43369510185389   11.92029639485015
H         1.65649687804365   10.27820039788214   13.67641029316065
H         2.13543973103766    8.93319519862190   12.64188896575630
H         4.15217098991928   11.20661948631380   10.11771551285198
H         3.49766233399280    9.59762348860057   10.39481562303659
H         5.23187530604395    9.88703470409578   10.57605954804174
H         3.46383423568340   12.95060002159957   11.42358534346444
H         4.05581776535915   13.27395246167892   13.05590178977401
H         2.38672651827033   12.75252914169588   12.79972306218721
H         7.18568517752502    9.60233548324324   15.70320009732621
H         6.44549611274987   12.65121686623155   11.27128828516047
H         9.36271303518564   13.58824024919107   11.42312024418959
H        11.38303549764703   13.27055367427090   12.81903954186099
H        11.34590978757471   11.79750246421942   14.76582140373477
H         9.30410024452528   10.57562010154243   15.41483663905581
H         2.31995447149789   11.99387419150753   15.39786747603171
H         2.35615505158385   12.44900719894705   18.42284059640115
H         3.80603937054489   12.02499307316883   20.38493284997429
H         5.95540683514367   10.89352578382082   20.13706590981262
H         6.76134906713543   10.13229320347447   17.93474452440414
H         3.97251368078640    7.36781463911269   11.93909760715844
H         5.15517727565800    4.61659257086098   12.56520921376921
H         6.82689012758888    3.56945961794844   14.06212873349914
H         8.09001859763434    4.90885938110654   15.66585957282147
H         7.75265671726191    7.34391545329855   15.85550743440143

