51
CSD_code = MEBFUW | q = 0 | S = 0 | Stoichiometry = C20H22N4O4Ru | MND = 6
Ru        8.38387781739399    2.58291120404283    1.32719132242097
O         8.44633271117055    2.52213637481864    3.38931008037059
O         7.88706970927193    0.55973173292402    1.28232791228578
O         6.31978758718057    2.73445639131485    1.55655951480148
O         8.26514638604654    2.49063426497717   -0.72066982841647
N        10.35320725321276    2.43907185053230    1.30006342940619
N        10.11857851208066    4.71890481862714    1.54573886967171
N         8.87906782237690    4.37986690912885    1.36252222122176
N         6.92381070772448    5.18905707763038    0.50931646203668
C        11.11276734627345    1.35574070587718    1.21366261367674
H        10.58958390977710    0.42610418105007    1.03031074972840
C        12.48737811530814    1.40089095128490    1.34582931508883
H        13.06738541383227    0.49545013266523    1.26936945220807
C        13.10445856590709    2.62950538038291    1.58039547196709
H        14.17659387984177    2.68826588642071    1.69122871677532
C        12.32934155974434    3.76376092410138    1.66522901106480
H        12.74874660811066    4.74040346215459    1.84029358313932
C        10.94016899429947    3.64570355328626    1.51889187246039
C         7.96421115897811    5.41655477889534    1.30442799904014
C         8.12445168702342    6.60034210534212    2.03172955536008
H         8.99824614128802    6.72564889364507    2.65029485368323
C         7.13275442599383    7.55725595500029    1.93735894387393
H         7.21008112329036    8.48172757788307    2.49148082913415
C         6.03762919122728    7.31453537431638    1.11904615967527
H         5.24424993457831    8.03897036190994    1.02119744364149
C         5.99060102214081    6.11481098686559    0.42253860824022
H         5.16819364342582    5.88447060893705   -0.24250054776470
C         8.16073333593218    1.72813098075703    5.58848642462517
H         8.54095734535448    2.72321124313472    5.80489894982841
H         8.80246455692991    0.98269881490681    6.05289635030770
H         7.16021375270392    1.62845685124451    6.00422211853326
C         8.11437707918638    1.52156022249801    4.08574492070252
C         7.72398666702618    0.26269161629469    3.63174760066819
H         7.46082686480239   -0.46817387297588    4.38164043144099
C         7.62344477703221   -0.13727331541517    2.29145340179114
C         7.16444348466970   -1.56111248702522    2.03559030472862
H         6.15886184422084   -1.69996403390919    2.42658481855576
H         7.82554804995751   -2.26599910069708    2.53477092099114
H         7.16376439126706   -1.75659766675650    0.96619436742430
C         4.05502197112782    2.67358793510789    0.90602969958782
H         3.91719781028156    2.75373170133382    1.98139992315382
H         3.56889095168794    1.77077910698438    0.54294049545280
H         3.59442780159545    3.53071106221496    0.41978999681448
C         5.53849961849627    2.63576959235711    0.58511412170657
C         5.87503106444702    2.49886946948940   -0.77065507757744
H         5.05007648806429    2.43408323975888   -1.46530783564991
C         7.15268057282488    2.45747298791747   -1.31953789064497
C         7.23935032933354    2.36311743221439   -2.83242533253673
H         6.79008886050566    3.24524622352446   -3.28255355914150
H         6.70465042330287    1.48503803591150   -3.18632606457791
H         8.28204073175738    2.29825151711327   -3.13164370097787

