57
CSD_code = MEBFII | q = 0 | S = 0 | Stoichiometry = C24H25BN6Pd | MND = 6
Pd       -3.52435855463969    4.29787867072098   14.82239574468995
C        -2.16241670209869    3.97012360192085   16.31776205181923
C        -4.77195057658107    5.17986518152880   16.18777853913676
C        -2.65806308841361    6.12187298647741   14.47500950290789
B        -4.42062550424105    2.13259286570981   12.53628833606139
N        -5.14809092078265    3.47115137030330   12.32346175912025
N        -4.95632397729800    4.52638838111789   13.13088082187111
C        -5.70276509157552    5.53280229083436   12.72632012072570
C        -7.36859791041384    5.76809102290291   10.74445567587812
C        -7.88084686815387    5.03634958130545    9.70480039116693
C        -7.48926460622532    3.70494082177719    9.48742114173919
C        -6.58034918640307    3.07298819299650   10.29862196719450
C        -6.04684703819067    3.80263602070393   11.36387742439906
C        -6.43974715605283    5.14872200376074   11.58781880756980
N        -2.90478727824674    2.38673732744557   12.47141633851665
N        -2.28416985187208    3.23706112259749   13.30460532768930
C        -0.99775673881814    3.26800140395850   13.02538804986826
C         0.41774692577063    2.02270801773690   11.23529802036403
C         0.27052505726076    1.11526860022579   10.21864727950765
C        -0.98620664892571    0.57457272706129    9.89980729091383
C        -2.12282105120943    0.92443955442743   10.58471492085268
C        -1.99296320671266    1.84843169691402   11.62453906355652
C        -0.72478978127318    2.39780547589766   11.95060132206003
N        -4.76691789903285    1.60701655342964   13.93985750138718
N        -4.49880881026394    2.30754897713069   15.05328985366933
C        -4.89002644725959    1.62477851729845   16.10899093821367
C        -6.02038491330388   -0.70439428576527   16.34535751095434
C        -6.46998758418823   -1.74190291860175   15.57066181292725
C        -6.36698078401225   -1.70441739964196   14.17016763621397
C        -5.81500512518222   -0.63508919504938   13.51039111230288
C        -5.35080637650928    0.43235726521911   14.28304167939167
C        -5.45273880912027    0.39912415283365   15.69901085601199
H        -1.15181991322719    4.14053666423908   15.93767869158628
H        -2.25249126181843    2.91610755721976   16.60154764518799
H        -2.30490025427420    4.58749917458036   17.20597801488863
H        -4.89495868310132    4.52365643192816   17.05333720038238
H        -4.44100365152644    6.15773482241532   16.54092652121122
H        -3.43245161908811    6.85662006503375   14.23956146714780
H        -2.01456514937909    6.00339062408395   13.59667826280171
H        -2.05849546049250    6.50583004267207   15.30167427198942
H        -5.74486331982860    5.29167322996305   15.69703100934349
H        -4.74337118996887    1.35269976852070   11.71296958483798
H        -5.70035013505550    6.47667939568262   13.23978256517747
H        -7.66548179613588    6.79177236751451   10.91682314575445
H        -8.60001924000668    5.48292941780749    9.03415271177851
H        -7.92047881195464    3.16836247832866    8.65496262876386
H        -6.28626377665633    2.05117124867071   10.12365325909117
H        -0.31728897208569    3.89051240381127   13.57677526425131
H         1.38092221791303    2.44186106837007   11.48513919794516
H         1.13116142586443    0.80338702189043    9.64555640838740
H        -1.05261272387353   -0.13729613670371    9.09007017691054
H        -3.08255583938955    0.50423357402176   10.33261921056910
H        -4.76433812623756    2.00812380599920   17.10489982964689
H        -6.09666472988924   -0.72727006148878   17.42215010523848
H        -6.91357872683593   -2.60956849081775   16.03628307399719
H        -6.73526201490703   -2.54598251621598   13.60183706360785
H        -5.74034174406934   -0.61561454270643   12.43553389082449

