64
CSD_code = MEBGAO | q = 0 | S = 0 | Stoichiometry = C20H32CoN5O6 | MND = 6
Co       -0.44640832366828   -0.28241199471338    0.22089312397106
N        -0.37289828108828   -2.05915193465499   -0.32540226812216
N        -2.16842847319069   -0.73197285441479    0.73842246432030
N        -0.47099790268214    1.55874847389697    0.72447214983192
N         1.34318009850766    0.19769768051016   -0.28952740937152
O         0.70930715127220   -2.61008680859533   -0.77033863803407
O        -2.92312950588672    0.09047531317918    1.39581607419488
O        -1.50779589545741    2.18076629321931    1.32716192360049
O         2.27192684818510   -0.65859191549687   -0.76686598753246
C        -1.47777210268109   -2.72354616931722   -0.15510470945704
C        -2.51963640033218   -1.95277265798164    0.46802478106368
C         0.55232344769409    2.24929112673724    0.35537300058339
C         1.62106247866424    1.45351867176601   -0.21177638055405
C        -1.63308731000756   -4.16336679588008   -0.52617062748370
C        -3.85899863795491   -2.51518101179387    0.82079294781847
C         0.65381850212647    3.73027844427489    0.47797541710958
C         2.89292010805140    2.06318766582251   -0.69069849976931
N         0.15398289736462   -0.93326089724473    2.18726616792764
C         1.51561331200667   -0.79396689682545    2.72720042095871
C         1.65663281157611   -1.57351039321488    4.04138267852370
C         1.87937306021601    0.65158816021285    2.96508134946431
C         1.00980155529579    1.52235398857535    3.61036756246371
C         1.38435182361436    2.82920966262116    3.86571371863809
C         2.63988339417567    3.27886659258054    3.49476228025811
C         3.51690234072196    2.41536096154632    2.86057913155278
C         3.13604194436082    1.11203742986506    2.59476548316179
C        -1.25322107429899    0.21954956052463   -1.60137738441588
C        -2.32473214868866    1.30131289133947   -1.57565330166988
C        -0.12666699748820    0.62672521949259   -2.47706162204096
O         0.27554550150249    1.75982954818599   -2.64509366852908
O         0.40799208679562   -0.43549039657892   -3.10784277240646
C         1.54954496041409   -0.20493202863910   -3.91588947015806
H         1.73448969603307   -1.57068383829666   -0.85067413720916
H        -2.22204324839965    1.42338208607551    1.42149607771004
H        -2.44877765196316   -4.28597864793146   -1.23681575709195
H        -1.85145669834339   -4.77185115644991    0.35100263298173
H        -0.70640505611865   -4.50724372696368   -0.98021492810709
H        -3.76120024977422   -3.35313589780491    1.50995264074519
H        -4.36981603859930   -2.86749352092293   -0.07363094635023
H        -4.45258268615490   -1.73317195299595    1.28911634900808
H        -0.25918401119755    4.12062894944460    0.91950336954714
H         1.50234060566586    4.00998398918227    1.09900791584318
H         0.78993557960515    4.15874859114542   -0.51348154164662
H         3.27907012465568    2.78001991408256    0.02886376802702
H         2.69150598930380    2.58020192014018   -1.62888101235825
H         3.62933603685378    1.28375569545957   -0.86943583045211
H        -0.07459810745001   -1.92769561322092    2.19838610506032
H        -0.49812752253959   -0.48561396208202    2.83232580564865
H         2.20481896583143   -1.22063637858939    1.99046251548421
H         2.66736287680751   -1.47316289086571    4.42797592113947
H         1.45300246234263   -2.63133836678977    3.88379698354684
H         0.96601817564921   -1.18817562869238    4.78965353197341
H         0.02866874669353    1.19619066755794    3.92391751498924
H         0.69381251559804    3.49596636396152    4.35947582817062
H         2.93428635395378    4.29726904276805    3.70208517922368
H         4.50040121517076    2.75719028264765    2.57224266797982
H         3.82072802231314    0.44357121629933    2.09363648086838
H        -1.66942137758605   -0.71033397300274   -1.99870680681169
H        -2.82638209033637    1.32531214491623   -2.54502860617115
H        -1.88169225819957    2.27982054570407   -1.40999795712135
H        -3.08051978460422    1.11606888036838   -0.81822228010131
H         1.48779224600123    0.78170869957134   -4.38058331273038
H         2.45036119929057   -0.26326521009724   -3.30064465748665
H         1.56324470037100   -0.98739315363305   -4.67123145019737

