64
CSD_code = MEBKUB | q = 0 | S = 0 | Stoichiometry = C24H26CrO13 | MND = 9
Cr       -0.18760836957084    3.89492908350715    4.63157228447560
O        -4.14436993116161    5.90988092608481    2.37071773621607
O        -3.54162338699635    5.24518112419982    4.51720710295295
O        -5.96375504828578    3.89336183643150    4.81504773187094
O        -5.45423962963868    2.04143588514983    2.73012221710107
O        -2.73039497843973    2.68240975888409    1.57142464977942
O        -1.83649649281229    4.91086977543008   -0.19343357786249
O        -7.35116007819923    5.65377346267534    4.90392043620016
O        -4.73444975147590    0.90726397926296    4.53440881780253
O        -3.93869924593189    1.01843327017964    0.64949050949116
O        -3.10197682210421    3.48082978222408   -1.37406471959049
O        -1.71135201042590    1.41457035603683    4.03402056202913
O         1.86149150761134    1.83201563895502    4.02049915261430
O         0.15950635062003    3.76165341553108    1.68391423134971
C        -1.40936973138549    5.73170977654434    5.36665751747382
C        -1.48995272947199    4.70511224920048    6.31886185098793
H        -2.46662605369290    4.40009217899097    6.67419320003321
C        -0.32998380738863    4.16524090349650    6.89200697265237
H        -0.40602567275402    3.43931351938304    7.69124279663730
C         0.92350422040870    4.61942958074473    6.46484212266252
H         1.82220880478947    4.25131326481426    6.94500957548054
C         1.02054702132477    5.63374616788715    5.50069156132902
H         1.98871958367423    6.03554427267169    5.23010328876054
C        -0.14335797001293    6.15348816368975    4.92096185394068
H        -0.07251614017298    6.97616162938971    4.21689372027193
C        -2.67841399188749    6.33139189316024    4.82889603589976
H        -3.16177644205216    6.97820010284932    5.58129355738193
H        -2.48438911113733    6.93201588952245    3.93173520425749
C        -4.58680690324339    5.55020188165106    3.64807711921339
H        -5.17393262597432    6.41236465674478    3.99974510763839
C        -5.46835986358647    4.29684264956280    3.54999401644379
H        -6.30546132877693    4.51437452834348    2.87448502724920
C        -4.61642638573551    3.14618742699695    3.01698216194761
H        -3.89816446955166    2.86217620779320    3.79786188364451
C        -3.86522623141842    3.52697294541185    1.72768484917055
H        -4.54546573794723    3.37978150076015    0.87771037119281
C        -3.28766844129239    4.95366685937593    1.76820615352416
H        -2.34240894973662    4.87862579667294    2.33200604853015
C        -2.98573539891983    5.50789460401876    0.36885697617813
H        -3.84870440399340    5.35467536484531   -0.28793242064818
H        -2.77721347305047    6.57619023718370    0.46128268261535
C        -6.91966291207881    4.64003026651924    5.38543192312660
C        -7.36376997761692    4.02678940498250    6.68397335160232
H        -6.74864639005757    3.16324679479950    6.91427026993486
H        -8.40523824992194    3.72630770444893    6.59137273595135
H        -7.29951488647075    4.76832385507132    7.47639131366208
C        -5.37791829790019    0.95632660051677    3.52318938908512
C        -6.19975835944493   -0.15339912382653    2.93688749071135
H        -5.78509746635394   -0.38909367517594    1.95863189746587
H        -7.22416759556245    0.18045387594860    2.79688154282645
H        -6.16780062884100   -1.02370772140613    3.58421059906529
C        -2.89008775371445    1.45833928846172    1.02740401646319
C        -1.57345520460651    0.73760806346740    0.99009295262415
H        -0.75408941944196    1.44588488411618    1.05308871228787
H        -1.51175281311252    0.13619545774855    0.08805122081648
H        -1.52808005393018    0.07740066485180    1.85441885316442
C        -2.01990789827804    3.87979360830247   -1.03949127826361
C        -0.69928629534116    3.35385731894572   -1.51861100957540
H        -0.30009029220316    4.03734302176368   -2.26521104911420
H        -0.83524733295635    2.37452075121749   -1.96596628701279
H        -0.00549048320009    3.31221719173839   -0.68500306399154
C        -1.20619106111896    2.41864379103565    4.28924708924320
C         1.09108356981740    2.64726419684615    4.30427337954826
C        -0.04249607821083    3.89633123305265    2.81726958146897

