61
CSD_code = MEBLAI | q = 0 | S = 0 | Stoichiometry = C23H24CrO13 | MND = 9
Cr       11.66044168250953    8.14583140551949    4.86728649612671
O        13.52206979436390   10.39006931457498    1.75416978578484
O        12.39216952688560   11.09900673923304    3.60558910637390
O        10.14560405609309   11.69425779473806    1.80443676096565
O        11.52495205163428   13.12359416703994   -0.42916212184378
O        13.02277586691661   10.90432090678387   -1.79201142208011
O        14.78920092254901    8.02840495022669    0.00608412555424
O        10.23156169617235   13.09074461386271    3.56897895629450
O        10.48867757171608   12.42901605136291   -2.29880133223487
O        13.74631197326210   12.92600460981117   -2.45798970308797
O        15.40296039770687    7.95004282343562    2.16566436275551
O        11.87934932463428    6.37791186824994    2.48746365803871
O         9.97707666110954    5.91941366198622    5.90744212445195
O         9.11531344539773    8.75723953548447    3.45646628432612
C        12.64677117312534   10.14705423518454    4.56674529996540
C        11.88619374658751   10.23006903873038    5.75446947364702
C        12.11154358550048    9.32849860227542    6.79124243642917
C        13.08822107313743    8.32096530512419    6.64812905912392
C        13.85412805772855    8.25356239210571    5.48744210173282
C        13.62231209549287    9.15646516575725    4.43130003164724
C        12.25831851608277   10.67683543000069    2.29184999146596
C        11.53481775151903   11.82004410688316    1.55000593301566
C        11.71319777461024   11.79108179280025    0.02948422342797
C        13.09128083918620   11.27418775572214   -0.42445265256044
C        13.46822156655024   10.03370005717485    0.39441806839029
C        14.82888182486692    9.44481047934317   -0.00311315483264
C         9.61365801158280   12.34514852749611    2.86316120933983
C         8.16386732297539   11.98788842674697    3.00047585116868
C        10.93782758455002   13.31612321635567   -1.62424531003400
C        10.95786488266227   14.77039997555068   -1.98363098905277
C        13.31455771185461   11.83713866735528   -2.72232200885204
C        13.00668094833290   11.31750705678591   -4.09174869802099
C        15.05280841916388    7.39074142242347    1.16027636610952
C        14.84188981215446    5.91487581882862    1.01291112989501
C        11.82678400332621    7.03929222778764    3.43809648465576
C        10.65252685901473    6.78512461923262    5.55074752281565
C        10.10538945177318    8.54230148957878    4.02039237845777
H        11.19352744199044   11.05660959603601    5.85712324362778
H        11.57512469319567    9.43309542798049    7.72615944884369
H        13.29708490769035    7.65807608890296    7.47957542554184
H        14.66582877738494    7.54305636807985    5.39778091614420
H        14.26277492323426    9.13887290666788    3.55985215928696
H        11.62378737599771    9.76231558633017    2.24125366278703
H        11.90064510588054   12.77380009876621    1.95302971540813
H        10.93936683787823   11.14750327176187   -0.41415523944004
H        13.83840508549672   12.06819487975471   -0.29045357841463
H        12.69556268201183    9.26389945279954    0.23287225353441
H        15.08075226729160    9.72788763130452   -1.02546290582498
H        15.58521547083469    9.80483679800561    0.70166788779610
H         7.70791085782492   12.58634472301443    3.78269617412748
H         7.65596477244660   12.14829109620664    2.05357583785828
H         8.08743661422622   10.92999534929864    3.24546061054088
H        10.79932992694881   15.37884578688065   -1.09888173937071
H        10.20945769990833   14.97745127890212   -2.74207395260670
H        11.94749233704009   14.99139239588289   -2.38231838486048
H        13.55353934254846   11.88424229488256   -4.83868702880476
H        13.23504027308942   10.25832197187225   -4.15414520213273
H        11.93651302650852   11.44897829187591   -4.25020120995818
H        15.54103823724016    5.37457061690492    1.64412606551086
H        13.82954838215590    5.68786119203088    1.34709261411275
H        14.94444497712101    5.62018264531046   -0.02613860268392

