53
CSD_code = MEBLOX | q = 0 | S = 0 | Stoichiometry = C24H16CdN6S6 | MND = 6
Cd        6.55426053333129    1.11867211486749    2.26502710288834
S         8.33327275785502    0.59094016626754    0.54383247828306
S         5.09829174753872    2.80457564990680    3.59827138341467
S         4.40368156491901   -0.64173643729634    1.54104913326465
S         6.25656994010211   -0.47985451330657    5.17168205321295
S         6.72389628916997    3.92682786174765    0.55252762870525
N         4.71983717232099    1.75725587958825    0.51871975391997
N         7.77126818203975   -0.83168335031521    2.64564742055988
N         9.39760618538861   -1.72691225477767    1.17518408106335
N         2.66905173577366    0.68900705665206    0.11392259040738
H         2.10931090823801   -0.14187512163240    0.25763320841219
C         6.61835089254448    3.20447943409182    4.23455999630798
C         4.29478771206451    2.82914967316222   -0.13073799159041
C         7.85052200340234   -1.90833393885770    3.42620264580133
N         7.67819550671145    2.50434399426312    3.75704895932788
N         6.71790148468991    4.16087119204414    5.14880281768244
C         8.53031188575878   -0.77681849968060    1.52950218886205
C         7.00770993070998   -1.93726180853093    4.60244035555055
C         5.17220227118161    3.95205523039261   -0.22695412781909
C         3.92793424695698    0.69060024239573    0.67878334693118
C         2.20231155601794    1.75863311645350   -0.56203164837082
H         1.20340654943126    1.68825059251103   -0.96685479735879
C         2.98253690984282    2.85944721411189   -0.70527464789124
H         2.62639473340372    3.72559796230385   -1.23133608034889
C         8.72195906016883   -2.95336499362639    3.09921703188376
H         8.81017493873103   -3.83067863284443    3.71571539673561
C         4.96036027389796    5.16015103034798   -0.86811378058749
H         4.06987507537072    5.39966954646954   -1.41985891895419
C         6.66707007525837   -3.00809303177804    5.38877560285600
H         7.00748146166381   -4.01191077847949    5.20887341088242
C         9.48105978598170   -2.78639870812481    1.95011262218584
H        10.19215542761725   -3.53929626189044    1.63279197138068
C         5.49487622584497   -1.33492980608856    6.44579455827450
H         4.86655254901609   -0.80255245947689    7.13242868096397
C         5.79909863708351   -2.66194852399322    6.43868775663003
H         5.41672309919148   -3.36726251862601    7.15481308530238
C         7.04996411493301    5.50961105652517    0.01625914722287
H         7.98083377251430    5.97692279831241    0.27264514630647
C         6.03153420959198    6.04346968200764   -0.72802834739122
H         6.05618190097937    7.03061914968233   -1.15284681293734
S         6.44600597307389    6.26339724887094    7.04768592925158
C         7.91407829223130    4.44196721060129    5.64921569643783
C         9.06198672560133    3.75397916875233    5.22234644088080
H        10.03760927211345    3.96819984450615    5.62187059360127
C         8.87197572661040    2.78748493905875    4.25466659264985
H         9.70051405176671    2.21363432605266    3.85403108877406
C         7.94077967587304    5.48610955192173    6.64139290101815
C         8.98718155451473    6.00088550312902    7.36396419195717
H        10.00313327789879    5.66157308763218    7.27088341197287
C         8.58877455011973    7.02029107488778    8.24472667404406
H         9.26421513894855    7.54540677751520    8.89651848133163
C         7.25016914057973    7.26727966872230    8.17996758607677
H         6.68976331344581    7.98885259361273    8.74111601021184

