64
CSD_code = MEBMAJ | q = 0 | S = 0 | Stoichiometry = C24H26CrO13 | MND = 9
Cr       19.66601536233217    8.89412821770185    9.08425021631142
O        24.21459323091801    8.73521915598637    7.99827733724084
O        22.35964830693453    7.43667207128595    7.80356847606073
O        23.21060537847756    5.94690778046166   10.06599308889986
O        26.20486114932898    5.63599947328289    9.77485094883851
O        27.35317729249008    8.27891837149676    9.78490898759857
O        26.84237132201165    9.67200060799103    6.89812836964304
O        23.73183680906211    3.88667097415457    9.33532331471116
O        25.54170306623122    5.10437237864502   11.85445407318329
O        28.75400308602306    7.20605476068460    8.39241727434628
O        28.76234356812651   10.33876146060996    7.85284742505872
O        20.15698699543145    6.72231519279959   11.05357976644078
O        17.02905422589431    8.78408783868878   10.46121772183328
O        20.39258723732789   10.46364150597346   11.50630440039345
C        23.36449192437677    7.83940535155909    8.67071025879236
C        24.07466110977472    6.55527486155734    9.12301868250970
C        25.43733704141887    6.82949226608298    9.77928411096317
C        26.22994159089746    7.89010413158144    9.01288884325716
C        25.34527325885827    9.11549290408718    8.74882005599774
C        26.08999754349854   10.20845328722163    7.97083413041048
C        23.16065673776315    4.59785941241404   10.11735431355241
C        22.32805110699527    4.15807168680710   11.27697243953088
C        26.13771415989429    4.82691939536722   10.84935594443292
C        26.88455490434239    3.55635452641947   10.58541595144214
C        28.57438248104753    7.87940208601228    9.37005123792818
C        29.63800512615532    8.42538552486271   10.26979750467948
C        28.18402491406465    9.76886115821868    6.96513577788991
C        28.82896804328817    9.06501145040802    5.81270993510037
C        21.27972643965207    8.26731341914854    7.62193692962629
C        21.34169737895123    9.65493160262583    7.75915929493073
C        20.19620106342042   10.43948310145143    7.50185657476486
C        19.00646624015461    9.83023949115629    7.11855547298210
C        18.94801387878022    8.42624307379210    6.98580421611457
C        20.06841440761895    7.63131466496294    7.23359630796702
C        20.05151111341815    6.14901472757892    7.02043234705778
C        19.98716810689486    7.55145457301139   10.26450617510541
C        18.02994285322969    8.84400578749752    9.88903220234949
C        20.11007879318548    9.89498010630322   10.54039012046629
H        22.93219679498935    8.32854861569090    9.57053783729155
H        24.21577456406944    5.88813621989771    8.26165505391578
H        25.27680884114869    7.15106753235620   10.81881052853733
H        26.57206801884893    7.45873072123444    8.06248838510882
H        25.02396573554724    9.53615778232920    9.71641296499395
H        26.76746552723948   10.74126396599058    8.64723630348677
H        25.35628709307326   10.89687974381097    7.54497603770924
H        22.00010848242208    3.13305205716203   11.13568807519280
H        21.48629689099699    4.83132439233082   11.40955209846997
H        22.95573023877426    4.21740443797747   12.16567627833095
H        27.76551564677702    3.75836159176831    9.98396413233323
H        27.14710920492845    3.07549872509106   11.52250458223663
H        26.22030043696396    2.90437952991411   10.01876786179098
H        29.90694440135610    9.40932323459482    9.88635164869889
H        29.26228001062498    8.53219516742048   11.28209954344988
H        30.51376205544263    7.78459095870698   10.23977448253098
H        28.13159013185506    8.96902379933697    4.98724283423918
H        29.11324037661267    8.07187748090686    6.16133610854759
H        29.72803537807965    9.59389472724854    5.51072548104965
H        22.29137201643282   10.13180994723057    7.96211350189238
H        20.27551069092049   11.51895868573902    7.53773252819465
H        18.14329332536452   10.42964159630930    6.85716983568298
H        18.03942099722035    7.96227016730244    6.62036465156671
H        19.03100628209154    5.77573156087587    6.97656868550064
H        20.58302253502956    5.64626711897271    7.82616025845566
H        20.55952707492539    5.89879185992028    6.08805007235926

