31
CSD_code = MEBPOY | q = 0 | S = 0 | Stoichiometry = C12H9FeNO8 | MND = 6
Fe        1.71301456473075    5.26618385834364    4.00348381753537
O         1.75589991162683    2.07196270050151    6.24592045762719
O         1.80531082492826    4.97721806190033    9.23885624557201
O         4.20416147741852    5.28801879005927    7.61384845517656
O         4.09077860940032    7.51081239125139    7.89866268310120
O        -0.43487329267760    5.23819390972039    5.96630996156099
O        -0.12718333519244    3.71471922706211    2.34089131110119
O         3.41450491077322    5.44688614495103    1.65149344617219
O         1.41876689203921    8.17389086798924    3.86729422530946
N         2.22645063508592    4.12988505957880    7.20056558553699
C         2.21920467019294    3.18060553828493    6.17081997921940
C         2.90223712125664    3.81012255416866    5.01255493677028
C         3.31837533504751    5.10738744161594    5.37829919423832
C         3.00304279867238    5.30173679253675    6.85087797205309
C         1.65839733482084    4.05708857725565    8.47483200895816
C         0.88519828608193    2.81443810405356    8.77944701287724
C         4.60163863744199    6.45865391108297    8.15792232466626
C         5.74640557049290    6.23542759728712    9.09989192428967
C         0.44061729504323    5.24141954977930    5.23739082947173
C         0.60391726563790    4.29438419454578    2.99433018283768
C         2.78614402013988    5.35830917085426    2.59782654545155
C         1.55476091608279    7.04590449410104    3.93574693007264
H         3.44442663310060    3.14509874617532    4.34870643363448
H         4.26681769919408    5.53294473585011    5.06445170450771
H         2.46514423680608    6.22708836661178    7.10446357974442
H         0.08284610230264    2.68357315564243    8.05672443880173
H         0.47595708319833    2.89397679069147    9.78297687217479
H         1.53224723685645    1.94341415637316    8.70526794570253
H         6.35540523118493    5.40222054865545    8.76349753146538
H         5.32986774869704    5.99001200354136   10.07551786881373
H         6.33611757961440    7.14282255953494    9.18732759555801

