39
CSD_code = MEBSIW | q = 0 | S = 0 | Stoichiometry = C14H16Cl2N4O2Zn | MND = 6
Zn        1.75132442861561    8.33720145769272    2.32739776995729
Cl        1.01751931123524    7.80969141791160    4.48647470123499
Cl        0.20635276789018    7.54932887226239    0.75404734542459
N         2.43837580122269    9.63087070781502    0.68013367094457
N         0.90965769103622   10.26725292968527    2.69514126577615
N         3.71870404478109    8.57903281775989    3.29094927197485
N         2.85600899815125    6.56286576469760    1.87774554555406
C         3.11140349818044    9.19335138464360   -0.36684681810719
C         3.06093209223544    9.80721992161674   -1.60868316662647
C         2.26197658528526   10.93024936471998   -1.75213794282997
C         1.55925173620853   11.39687269526245   -0.65510794235540
C         1.66757394249847   10.71550209778247    0.55657642420080
C         0.92465877592898   11.12668761794125    1.75177890390618
C         0.23413436111787   12.45120557115765    1.81393840576153
O         0.26234986020646   10.53119346845268    3.85109913920805
C         4.02448692670450    9.57832187969555    4.09622286311307
C         4.97108836403561    9.47500172263412    5.10354622374949
C         5.62076811001593    8.26247284700431    5.27006085234661
C         5.30773000449039    7.21312513205117    4.42393099613798
C         4.34034961609766    7.40540411043182    3.43842853287287
C         3.92785272246344    6.33071317444038    2.53046177878617
C         4.71839255260353    5.06650625406746    2.42041569163688
O         2.37590740092048    5.65115091179313    1.00426104438303
H         3.71250020587182    8.31031860607930   -0.20453269637214
H         3.62196007871407    9.40955110602820   -2.43882446828759
H         2.18132253729970   11.43205323628802   -2.70496392268998
H         0.91997759654439   12.26014730151114   -0.74294686643765
H        -0.64595326341852   12.44214174856316    1.17225845576928
H         0.89677242446313   13.25031223135833    1.48857186229537
H        -0.08801902342463   12.63611373345945    2.83585474525222
H         0.35691364738193    9.66583200718870    4.36097431269576
H         3.48343874732397   10.49897669846429    3.93031891527130
H         5.18300765159832   10.31618028742332    5.74354753582855
H         6.35540700555656    8.13268461836516    6.05076458929667
H         5.78786844725322    6.25528617916090    4.54067640337686
H         4.36176384929141    4.49834323786238    1.56455160515043
H         4.58021132993845    4.46208219476499    3.31603265463536
H         5.77853758966595    5.28043991052853    2.30214243665386
H         1.50909158401427    6.06931478143501    0.70113988051496

