83
CSD_code = MEBTIW | q = 0 | S = 0 | Stoichiometry = C32H44Cl2N4Ru | MND = 6
Ru        4.23063838273535    8.48760670617685    0.00066573720936
Cl       -1.40514194610171   12.49438416877548    6.00904678114112
N         3.88550936443600    6.34887475693775    0.87430239379429
N         2.35055769127006    8.22510217161938   -1.35959794219826
C         3.03721836527087    9.31037805577038    1.39650770970412
C         2.27761426482953    9.85837246562382    2.17815908597896
C         1.40246814282000   10.48451389541357    3.08947118736385
C         0.90791315018863    9.79392905229779    4.20402950198109
C         0.05163194291055   10.40396559748214    5.09595891253222
C        -0.32589073526947   11.72085432956568    4.88564236108446
C         0.14494548332961   12.42984598800139    3.79205499119319
C         1.00118047084098   11.81445361357985    2.90360755195702
C         3.07012959726546    6.27615767569154    2.08852588254675
C         3.25764982608682    5.55082621410564   -0.19133653783412
C         1.80299533853621    5.86712023738482   -0.53147735684740
C         1.42061474357381    7.34179354549293   -0.63692321313486
C         2.59841404899502    7.68605210779823   -2.69879880127702
C         1.60032001643319    9.48372601148538   -1.50249657029609
C         2.35105581133160   10.65777603769860   -2.11423178226837
C         5.15715620427167    5.65371289656005    1.13103884296874
H         1.20665417826502    8.76621341203544    4.36293883458830
H        -0.32474512622269    9.86532732208160    5.95288729103945
H        -0.15947265878100   13.45497791308414    3.64189460806011
H         1.37112513984120   12.36566062423977    2.04843482026421
H         3.55161632426071    6.81936458162591    2.89726674276062
H         2.10113414459877    6.73848349398144    1.93263819709303
H         2.92470026945261    5.23063543886983    2.39675096184705
H         3.88522620889878    5.67824353765617   -1.07793155990840
H         3.28650890467477    4.48260611410047    0.08924204562084
H         1.58540398294013    5.36088324358820   -1.47506002499658
H         1.14333245339965    5.42570160731769    0.21951084302482
H         1.30574454027426    7.77144630210996    0.36221699510116
H         0.43248836029762    7.37305280192202   -1.12992604754517
H         1.65369313891735    7.55776261928915   -3.24655609969403
H         3.24434565421097    8.35520641407244   -3.26076781445349
H         3.10944196555012    6.73057070811243   -2.64501734965977
H         0.70609672821622    9.28905713465507   -2.12015072808000
H         1.26470908666059    9.78472908516616   -0.50567773821733
H         2.85889380342028   10.37309539080528   -3.03393699631072
H         1.60177719577721   11.40644144325119   -2.38389608716915
H         5.67998511845911    5.55862394336887    0.17493721533357
H         4.93190904765708    4.63846550889593    1.50242117077707
N         4.57524856903406   10.62609449721045   -0.87364582930844
C         5.39065760301106   10.69882110395530   -2.08785123057733
H         4.90914183054794   10.15563399476145   -2.89659152502475
H         6.35964600774820   10.23647279488021   -1.93196518047776
H         5.53612061511261   11.74435731605908   -2.39599494823873
C         5.20317741540380   11.42395125117968    0.19211593003007
C         6.65791537126795   11.10795216059760    0.53220666793633
C         7.04014721197668    9.63325753522092    0.63756027748347
N         6.11053040598698    8.74983526359649    1.36052596672717
C         5.42358011654880    7.66509509033374   -1.39583279617575
C         6.18231349663457    7.11748673884293   -2.17865824663186
C         7.05600795567160    6.49074831357049   -3.09101439118541
C         7.55162211188954    7.18170240510779   -4.20489771454828
C         8.40717215942856    6.57133588896476   -5.09730066872095
C         8.78307709406884    5.25383187618221   -4.88801943879766
Cl        9.86126902779990    4.47981882151221   -6.01216821702875
C         8.31139749077519    4.54454609279056   -3.79498620785055
C         7.45590343447650    5.16028057508975   -2.90605827547111
H         7.08543323590482    4.60892059813049   -2.05122049827102
H         8.61438684384701    3.51884441724976   -3.64574674099370
H         8.78408965235559    7.11013014060872   -5.95389252914368
H         7.25434660912923    8.21000663846540   -4.36287405501569
C         5.86239893331181    9.28900885308156    2.69961977425903
H         6.80709233386810    9.41731618019694    3.24737810492423
H         5.21645153682267    8.61984426969935    3.26156363959466
H         5.35135407142895   10.24449525039786    2.64577278739322
C         6.86056262611415    7.49109686794187    1.50324643817654
C         6.10977267810026    6.31716527171672    2.11509063922990
H         5.60198676503593    6.60190988590303    3.03480813642619
H         6.85906676352811    5.56851383926952    2.38475649333553
H         7.75475266897728    7.68574287670517    2.12092662447106
H         7.19618016890528    7.19003828042683    0.50642790464508
H         7.15490802052233    9.20359711859148   -0.36159582407821
H         8.02832741625425    9.60208646140965    1.13041121660768
H         6.87557608117327   11.61410148568129    1.47582776281572
H         7.31755447707413   11.54942524198067   -0.21878627898977
H         4.57558861997338   11.29669919040313    1.07872945377962
H         5.17443755608496   12.49214284614451   -0.08847773360920
C         3.30361192360995   11.32132780178627   -1.13021635885468
H         2.78081279721499   11.41623132670172   -0.17407656717047
H         3.52883167884435   12.33663926998079   -1.50146457673711

