91
CSD_code = MEBTAO | q = 0 | S = 0 | Stoichiometry = C34H50N4O2Ru | MND = 6
Ru       -0.00007068548008   -0.00010445777917   -0.00001720176503
O         5.17112732012447   -5.77832671364408   -4.20166544972625
N         1.68854273331564    1.58318921458153    0.32406614278424
N         0.68406802335950   -1.12090292137287    1.93506083571548
C         1.23594337033354   -1.19304109588255   -1.05725251546056
C         1.94188275926158   -2.00422853814438   -1.63126217576546
C         2.75846370453139   -2.94068799140513   -2.30503526003056
C         3.05114772735309   -2.80077363594929   -3.66344557596717
C         3.84518045367273   -3.71648396037672   -4.32857521283443
C         4.37057747569853   -4.80531793743762   -3.64525311278827
C         4.08670823280218   -4.95931476883585   -2.28869883015836
C         3.29623186124093   -4.04545302625293   -1.63107861918549
C         5.49466517437671   -5.66846722190190   -5.56048843317553
C         2.96365835562490    1.30620372470575   -0.34013406146307
C         1.89835002753076    1.68204483706150    1.77722527805816
C         2.58788378270066    0.50405371895460    2.46214932744896
C         2.13309639887082   -0.89631515846972    2.05729397078442
C         0.01722458963919   -0.72579745062960    3.17691271296315
C         0.56499348833395   -2.58032150543819    1.79003705747461
C        -0.82798344677128   -3.12602235351631    1.51063500189316
C         1.25151767348029    2.93476229049053   -0.06125059675540
H         2.64710375283655   -1.95537221330920   -4.20606898943729
H         4.04577740787026   -3.56820558923728   -5.37971328215818
H         4.50251326884631   -5.81134956507629   -1.77172650529149
H         3.08537927151574   -4.17897435070699   -0.57709531985377
H         6.12837087404483   -6.52552425177917   -5.78636240962317
H         4.60146427573245   -5.70519262774914   -6.19522282944095
H         6.04841214429431   -4.74640289712785   -5.77289776676463
H         3.34619223356005    0.33176517442718   -0.05538569563398
H         2.82969103481067    1.28613759271002   -1.41824796712624
H         3.70903563338427    2.07430938606351   -0.08669911981671
H         2.51409710273325    2.57332740451152    1.99609726823786
H         0.91004034233176    1.84528041773601    2.21656354451608
H         3.66428653457188    0.54852053840040    2.27864095214731
H         2.44763385369450    0.64165721655075    3.53719933618737
H         2.54637115555241   -1.58825123993888    2.81368188212128
H         2.56519233612487   -1.16520998452890    1.08909978635991
H         0.44591851146251   -1.26217067763189    4.03635545057248
H         0.10854220595815    0.34259952846860    3.34182795770360
H        -1.04558086316642   -0.94453243153291    3.11830953544406
H         0.94216632846906   -3.05584135093484    2.71298076489239
H         1.21187873756925   -2.88227445168189    0.96118782107491
H        -1.56453091438011   -2.71780408308966    2.20053434784826
H        -0.78814244585514   -4.20374718959301    1.68918178860504
H         0.40017849819135    3.20041976776503    0.57247833679829
H         2.07249130740516    3.64194988084302    0.15278795809723
N        -1.68861793772137   -1.58323230848054   -0.32404974069948
C        -2.96376847167817   -1.30621017385182    0.34005981509600
H        -3.34615161499650   -0.33167427100901    0.05544679164389
H        -2.82989889170796   -1.28634004398489    1.41818713446100
H        -3.70920103931337   -2.07419556086606    0.08642861968489
C        -1.89828689756515   -1.68207121715153   -1.77722735342195
C        -2.58782803450787   -0.50410693582365   -2.46219032246672
C        -2.13308770514336    0.89627676085939   -2.05733552008936
N        -0.68407265182342    1.12091131752150   -1.93504468318290
C        -1.23578519392163    1.19315549312330    1.05724236590475
C        -1.94144086731087    2.00451553468116    1.63137896675410
C        -2.75856134678205    2.94062920108242    2.30499036888284
C        -3.05118126664535    2.80075958658101    3.66342254938047
C        -3.84520129626571    3.71647729242238    4.32856080601213
C        -4.37059980397607    4.80531145004223    3.64524171294156
O        -5.17114412876442    5.77832160746841    4.20166370489557
C        -5.49468518282404    5.66844583956692    5.56048512917980
H        -6.12840885127625    6.52548752681553    5.78636522154708
H        -4.60148694799530    5.70518439332850    6.19522380255290
H        -6.04841452348646    4.74636867332417    5.77288289431289
C        -4.08673757166503    4.95930505981628    2.28868484587497
C        -3.29626553096417    4.04544224888809    1.63105904736205
H        -3.08530837992366    4.17903664454385    0.57710673393147
H        -4.50253920769127    5.81134388653494    1.77171595638112
H        -4.04580238680596    3.56819454647648    5.37969761422328
H        -2.64704165319197    1.95541961822364    4.20607028831033
C        -0.01716437072005    0.72583678055341   -3.17687294756767
H        -0.44584118088557    1.26220865113555   -4.03632326947037
H        -0.10845954471242   -0.34255977137760   -3.34179991831765
H         1.04563665599715    0.94459124493600   -3.11823756558329
C        -0.56502209344194    2.58033036205197   -1.79001496984905
C         0.82793473500794    3.12605191964245   -1.51056701986364
H         1.56450511726794    2.71788035043878   -2.20047341549046
H         0.78806208321894    4.20378847536914   -1.68905006196582
H        -0.94217114818092    3.05585781943317   -2.71296673984721
H        -1.21192582538248    2.88226902212759   -0.96117471889344
H        -2.54633163357525    1.58818290033201   -2.81376735901637
H        -2.56524893849773    1.16518537474520   -1.08917316378220
H        -3.66423449438524   -0.54858864746541   -2.27871155313848
H        -2.44754050072788   -0.64171323327476   -3.53723573765594
H        -2.51398339987169   -2.57336982457090   -1.99616166605277
H        -0.90993235126802   -1.84526884304275   -2.21648377861031
C        -1.25159710660675   -2.93478957356176    0.06131852624396
H        -0.40027565778898   -3.20049170939583   -0.57241516362260
H        -2.07258456903631   -3.64196652041787   -0.15268635448265

