92
CSD_code = MEBWIA | q = 0 | S = 0 | Stoichiometry = C45H43NP2Ru | MND = 8
Ru       11.29564770199647    5.97137528502145    9.61164556463824
P        11.83347811367621    7.12025660993108   11.45991304887399
P        13.21120522705807    4.86046669598478   10.02662761213507
N         6.27563850743075    0.47877960668587   16.23465707134625
C         9.71866275698233    5.42924193129848    8.13034826824023
C        10.97156130252820    5.49057322675888    7.45856007035314
C        11.46327423929288    6.84547667396358    7.54578410874704
C        10.50999691379001    7.60522512925032    8.27579447703712
C         9.45146317912653    6.72441890782029    8.68886891292476
C        11.52818351037948    4.44358968624586    6.53817807063004
H        12.59527752516531    4.59046615006645    6.38033432936516
H        11.02758765421956    4.50827500933252    5.56859428459382
H        11.37488192998390    3.43992252906696    6.93301649910126
C        12.57701996997060    7.39923257569423    6.70299759120287
H        13.48069026032904    6.79259123513465    6.77383855211514
H        12.82231436838702    8.41800926642837    6.99776540450212
H        12.26740777340190    7.41682240186658    5.65483396294758
C        10.47465400997920    9.10207884831908    8.37500877399107
H         9.73172158369832    9.42385525252682    9.10159436499488
H        10.19945273201736    9.51793359561226    7.40253856371130
H        11.43882131387131    9.52273885444923    8.65980723235653
C         8.14435249958915    7.14522134859947    9.29557693902797
H         7.66401200859379    6.30173645128235    9.78778452230493
H         7.47209604925533    7.52092349142855    8.51986112278504
H         8.28639730261020    7.92933026981206   10.03909012320903
C         8.74769874551456    4.28594977196709    8.09798683702722
H         8.30025531066031    4.11859530101367    9.07725628537428
H         9.23558002413473    3.36597031083279    7.78206812714105
H         7.94655478143910    4.50926865661291    7.38959686926130
C        12.88651477531940    6.01927111780683   12.51725796072735
H        13.29945578451587    6.57295526273140   13.36692049682381
H        12.24405313614769    5.20842266830393   12.87491023437333
C        13.98264165044163    5.44708428423051   11.62536762635065
H        14.50386977791790    4.62287284225743   12.12012535339091
H        14.70825069101667    6.23124116450541   11.38919945067996
C        12.92167332928714    8.58831898911427   11.39489254891640
C        13.14759992858931    9.39757331045165   12.50363233679734
H        12.63076880280481    9.19127559040782   13.43139540321821
C        14.02271156117684   10.46382152774313   12.40991038932037
H        14.19755549891548   11.09360829705453   13.27023092357809
C        14.67756484059128   10.72815096436674   11.21627278869412
H        15.35897255783292   11.56361488147922   11.14960647851840
C        14.45832245115313    9.92317778369132   10.11079793860298
H        14.96951412875166   10.12798075741424    9.18049328527159
C        13.58136035784282    8.85704047512346   10.20331885117854
H        13.39475903574200    8.20739035367324    9.35567387652400
C        10.51941905875502    7.70827751446518   12.56742120757443
C         9.92957936867957    8.93205801741004   12.25461649470692
H        10.35071388165547    9.52840485499868   11.45458683863951
C         8.83335051852451    9.38519949065258   12.96240279422167
H         8.38441361329067   10.33682847140238   12.71504153225354
C         8.30682217018073    8.61423021889087   13.98700027829786
H         7.44609418140027    8.96365820498823   14.53810492631453
C         8.88446879287626    7.39502257608292   14.29999637615992
H         8.47372702936124    6.79223586865195   15.09715022770683
C         9.98256215853917    6.93770330978318   13.59300882269520
H        10.41618123479906    5.98001303615696   13.83513157563836
C        13.18817391171325    3.04836638601194   10.28648594804649
C        12.01314248246411    2.35083945472091   10.03976087888575
H        11.13833471020031    2.90390188617756    9.72211791768631
C        11.96273680881358    0.97978905288415   10.22245632195291
H        11.04317904287260    0.44352757642401   10.03647146956832
C        13.09057033708299    0.29723830668052   10.64596078808899
H        13.05298853905493   -0.77203517266456   10.79487000630013
C        14.27303219703527    0.98536867680601   10.87251369548275
H        15.15630183031066    0.44987204318723   11.18995738651842
C        14.32604906726733    2.35420814391228   10.68974534739814
H        15.25619187092340    2.88575649344486   10.84356347258617
C        14.60131396580470    4.96241979649250    8.84359848648397
C        15.42890911414886    6.07937503513630    8.76881894697639
H        15.32961143382597    6.87916833187576    9.48868076070742
C        16.38525907775249    6.17959120410385    7.77449875539777
H        17.02787132049131    7.04751993485262    7.73467043788407
C        16.51695829566695    5.17673240785945    6.82812664766582
H        17.26133462709158    5.25922660891240    6.05007136709035
C        15.68470192992017    4.07055292317603    6.88118221180289
H        15.77656905938877    3.28818518694206    6.14150654826623
C        14.73195005957955    3.96575740271742    7.87754742790468
H        14.08507178237724    3.09999368674486    7.91843967904576
C        10.41088410774763    4.86604304794524   11.02729898654565
C         9.73044531411471    4.22021063278217   11.80075261035702
C         9.00065865840411    3.43886029513270   12.71735190004980
C         7.79667918019619    3.90865681062586   13.25935394556153
H         7.43196016999972    4.88141564576502   12.96004153090358
C         7.09356469943133    3.14827909769298   14.16426981221578
H         6.16577402535807    3.51031602231057   14.58500748820525
C         7.57783651754312    1.89359389745491   14.54963770660991
C         8.77888556016636    1.41705675774830   14.01308934166960
H         9.14664386308307    0.44673892433521   14.31637850690771
C         9.48013193839118    2.18100671006445   13.11006952002916
H        10.41014671339804    1.82159492838187   12.69136161241517
C         6.86043017720174    1.11361495645275   15.47704792972197

