93
CSD_code = MEBWEW | q = 0 | S = 0 | Stoichiometry = C44H43NO2P2Ru | MND = 8
Ru        2.60815334792947   -2.47620298646091   -9.23812159431646
P         2.15032744810625   -4.51101999158481   -8.37220066611159
P         1.35854465138348   -3.18491390853376  -10.96686755850410
O         9.46370417077558   -4.88567620003941  -15.24576135280840
O         9.52754977206320   -6.69819672776427  -14.08384270647919
N         9.07077486626927   -5.59238059561524  -14.33013955791094
C         1.87387360417343   -0.95079919823443   -7.75707734791933
C         3.21704861156104   -1.35509889399586   -7.41144896381380
C         4.08147182399415   -0.98050588850726   -8.47840183881515
C         3.27812189076070   -0.40145579919978   -9.51679198010769
C         1.92343008667225   -0.33901631655438   -9.03843870025869
C         0.73869718794311   -0.86396605822331   -6.77680814881213
H         0.59620524956731   -1.80013951215851   -6.23580212790657
H        -0.19404814710667   -0.60980727574600   -7.27694820736161
H         0.95096696714805   -0.08258300792634   -6.04277288514239
C         3.64783917431219   -1.77664036155321   -6.03697057330338
H         2.83871016415585   -2.28107489722934   -5.51158492869576
H         3.93198765851194   -0.89374818476086   -5.45874439386523
H         4.50433005459547   -2.44856727618490   -6.07373019537915
C         5.58131941974191   -1.00032550185231   -8.45646508637421
H         5.98700053280989   -1.35606405579932   -9.40298546272256
H         5.95352975144737   -1.64249256501506   -7.66083350576143
H         5.95503567712987    0.01130930276992   -8.28308089228264
C         3.81535074226499    0.31208879549379  -10.72291806029006
H         4.76464667201558   -0.12143456778421  -11.03124535405000
H         3.97650513196281    1.36842131380639  -10.49349874850451
H         3.12638197888388    0.24328365943782  -11.56447806012091
C         0.82691566913927    0.46444280586988   -9.67255745892658
H         1.03135861643864    0.63496172915753  -10.72743064287130
H         0.76718856878127    1.43749972536909   -9.17855512419901
H        -0.14563657564487   -0.01852382412662   -9.58453919378528
C         1.15323280583751   -5.52694938438735   -9.58264961805872
H         1.39161077093077   -6.58857535059885   -9.47470804811044
H         0.09157044952116   -5.38035842637560   -9.36230478731802
C         1.45281000210426   -5.03621379538170  -10.99455878376039
H         0.75291379947097   -5.45031663523796  -11.72771349039039
H         2.47947609488059   -5.30259670168989  -11.26541287843338
C         1.18313887536693   -4.65331273799752   -6.82832165247883
C        -0.19821461309102   -4.48195096636860   -6.80371848301871
H        -0.74732813311991   -4.35475943489853   -7.72563565562279
C        -0.88295214221103   -4.47176178945353   -5.60186293903141
H        -1.95638311894235   -4.34777669378288   -5.59786631226826
C        -0.19780707479436   -4.61319799855418   -4.40636646439937
H        -0.73410176054755   -4.60135988446289   -3.46917928463518
C         1.17925550099539   -4.76393513867021   -4.41875020769455
H         1.72067353447225   -4.86744559157992   -3.48948671531072
C         1.86532716549388   -4.77915657615074   -5.61906180378038
H         2.94009466888162   -4.89922338064261   -5.62642546986504
C         3.51257222130992   -5.66570410713582   -7.97315581390442
C         4.82162197044532   -5.20503155750520   -8.02464303979236
H         5.00030330181459   -4.17792065120214   -8.31655809833586
C         5.87364413952063   -6.05464056780844   -7.72961250978832
H         6.89034733796317   -5.69285312357528   -7.78099839941077
C         5.62151667902745   -7.36824421835014   -7.37176546429481
H         6.44060615486049   -8.03511651721891   -7.14622689695294
C         4.31518531463664   -7.82730309871677   -7.29493588230647
H         4.11868254261033   -8.84853797072095   -7.00188420995824
C         3.26300611101928   -6.98106372020326   -7.58937124131458
H         2.24375378084763   -7.33516330427387   -7.50584968352457
C         1.79141533408141   -2.67259344167723  -12.65434626390577
C         2.71613511610981   -3.35157806472653  -13.44070063634508
H         3.13132753716910   -4.28824166557738  -13.10308024599503
C         3.11202452155342   -2.82255156878390  -14.65637792365103
H         3.83123895699764   -3.35508523771783  -15.26144836823386
C         2.59807642154333   -1.61371346926911  -15.09540606734677
H         2.91462278617689   -1.20257278873362  -16.04250235037467
C         1.67765607473759   -0.93040696102406  -14.31614184290255
H         1.27398734067859    0.01265686725913  -14.65637772503746
C         1.28169244199317   -1.45434269451402  -13.10076095250266
H         0.56038905004984   -0.92960970742764  -12.48637057871224
C        -0.45745325514512   -2.98159218702272  -10.97900913147813
C        -1.23172541447207   -3.26598773999010  -12.09924285188872
H        -0.75159371531386   -3.57391878378658  -13.01838182803077
C        -2.60740107135005   -3.14432440569634  -12.03258627722686
H        -3.20936995863350   -3.36267002966267  -12.90267271550358
C        -3.21793269548981   -2.74397379343891  -10.85344031000167
H        -4.29296130061470   -2.64986811327940  -10.80882880555738
C        -2.45126519429056   -2.46443239407366   -9.73436214183092
H        -2.92689569629847   -2.15421810826602   -8.81449492601212
C        -1.07448021841402   -2.58293885631843   -9.80086538161318
H        -0.44997889470784   -2.37415680416280   -8.93951257709640
C         3.99707416912185   -3.32201381727495  -10.38687013605038
C         4.92103943673122   -3.67321446793111  -11.09876548318417
C         5.96901798445173   -4.14501587032895  -11.90267586823010
C         6.52021018915656   -5.41724365481761  -11.67015503562480
H         6.13088686037399   -6.01344164014200  -10.85702747265706
C         7.53698439079737   -5.88981500283332  -12.46136722410041
H         7.97397887953751   -6.86309903933787  -12.29659365345329
C         8.02322931810155   -5.10159396579134  -13.50709364629586
C         7.48549659367065   -3.83589344151011  -13.75156142528485
H         7.88127642745734   -3.25134032654890  -14.56835185900856
C         6.47156937238318   -3.36323928939096  -12.95647640081215
H         6.04028706481080   -2.38897395031095  -13.13588674286105

