57
CSD_code = MEBXOH | q = 0 | S = 0 | Stoichiometry = C23H24CoN5O4 | MND = 6
C        11.45599509961616    0.43344479541083   14.68378932727814
C        12.00028901103869   -0.57320567254839   15.46310333512089
C        11.96892053446830    0.69538089102465   13.42692880720492
H        11.54248749830105    1.48011210872304   12.82107471567426
C        13.06363213867005   -1.31956845297441   14.98190181410610
H        13.49564809108013   -2.10101435772367   15.58925725301365
C        11.78365326164947   -3.84450763821401   11.56168599531882
C        10.69091029165438    2.58088096919047    8.36039608651680
H        10.02291986329105    3.35611397321255    8.70074910800427
C        13.02979016724845   -0.05871425352672   12.93389013029588
C        13.57582212320320   -1.06858416318948   13.72376360810003
H        14.40950370172457   -1.64613745404012   13.35332938621442
C        10.31578731136117    1.69651431757437    7.36211048445721
H         9.34211724713911    1.76247726068496    6.90027754637391
C        12.17415687868836   -2.53573301188689   11.35490595559634
C        11.94940694787346    2.46065814443781    8.92374296533372
H        12.26279097882141    3.15020602048284    9.69598622375843
C        12.65986004577939   -4.88438904283539   11.29628322634431
O        13.72273758129161    2.45825083806918   11.95667574446147
H        14.02249157218984    3.26401785570804   11.37638386415321
C        13.58798212378398    0.20148557749099   11.59901158747887
C        11.22369925853624    0.72572148603748    6.97246547691582
H        10.98244527294603    0.01150355348014    6.20148020920622
C        13.45416286206006   -2.25089349589931   10.88168166824442
N        13.91481886172397    1.37600531097322   11.16104908723579
N        12.82344164806239    1.52850807900671    8.54896695343935
C        13.87106838172711   -0.85964679702439   10.66056389173929
C        13.92808725022955   -4.60897530772208   10.81394817029443
C        12.46156726003636    0.67863185886087    7.59045262361652
H        13.17801279215667   -0.08040559262860    7.30625971403990
O        14.45288579870367    4.11598233387502   10.18743190616268
C        14.32495993813840   -3.30160216370040   10.60401366232805
H        15.31341162489802   -3.08875122768398   10.22774409991264
N        14.49386116328678   -0.44544341062157    9.58801010338088
Co       14.71475697628581    1.40862926936893    9.47132155466334
N        14.90003453451374    3.28054041221775    9.32348632734353
O        14.77524410965969   -1.24104619785737    8.61609697872410
C        15.46312788232195    3.67041706598117    8.21928992844960
C        16.49602524596162    1.40535826534428   10.39141248020980
H        17.21786395702679    1.86706235351739    9.71143951167825
H        16.41015958686691    2.05839576029329   11.26511300306013
N        15.58371522243003    1.43050263717268    7.79801036418676
C        15.85599557297762    2.61051148505458    7.35977412844090
C        17.05458109411701    0.06610329470278   10.84154726364162
H        18.04635002936504    0.22327571801327   11.27218174024017
H        17.16505425794598   -0.62535367027268   10.00893121297902
H        16.43345938953017   -0.39690247557563   11.60606160174806
O        15.91444459284543    0.36202384978197    7.03913161934559
H        15.54649471029396   -0.44527944298415    7.58134361127043
H        10.62911857817596    1.01949649770524   15.05694983970309
H        11.59933726924246   -0.77397046281885   16.44556890955784
H        10.78979703025341   -4.05447808996135   11.92954114927637
H        11.48271576030964   -1.72879141997377   11.55018815083442
H        12.35195287123040   -5.90651798350735   11.46077108571492
H        15.60871484696846    4.71605339791717    7.98390441418460
H        16.34450693210786    2.76870073678479    6.40670896726472
H        14.61302496818910   -5.41645433292862   10.60081142617106

