94
CSD_code = MEBXAT | q = 1 | S = 0 | Stoichiometry = C44H44NO2P2Ru(1+) | MND = 8
Ru        7.54413388453626    6.51166185988857    9.30400337496324
P         6.45826546158343    6.21712495958016    7.28423660709752
P         9.43653959408112    5.97438475350471    8.06063453522840
O         2.68790854634242   13.36837410635145    6.92411811113004
O         1.62528211820942   11.65590372123165    7.67796883377596
N         2.64388447234837   12.26747701825587    7.42715572267022
C         7.67689399461352    4.83509866952276   10.85644815759390
C         8.33752629416830    6.04026267383449   11.32432201672997
C         7.34730499696707    7.05840482013256   11.46509594004107
C         6.09903244335821    6.52416212153194   11.00513109024888
C         6.30947607366582    5.13231442791496   10.67331228843955
C         8.27374680327878    3.46212369415086   10.94065170134000
C         9.70115836030621    6.06907877485207   11.94420337952452
C         7.53175914051100    8.37735634871738   12.15070179384340
C         4.74948903714610    7.12125777940084   11.26873845740709
C         5.19998430263193    4.14977497478420   10.46341327918434
C         7.71696251273494    6.62427775554496    5.99286020140640
C         8.96760185509843    5.80015600071144    6.27139903916850
C         4.99384644934376    7.17380254335780    6.80920782900107
C         3.78915850631789    6.81313592620489    7.41224917544568
C         2.62672099021348    7.49875357602696    7.11995988913171
C         2.65559307690160    8.55228938272757    6.21823491834605
C         3.84876153859101    8.91213209514850    5.61379250673558
C         5.01915345925636    8.23454632615000    5.91021958064901
C         6.00696725428526    4.52374640208947    6.79805198366071
C         5.10760689143097    4.27118292206568    5.76615932905455
C         4.84407674485882    2.96547213176495    5.39353160376049
C         5.47307031714156    1.91131176080393    6.03835802862739
C         6.37416263030136    2.16006991973634    7.06107278384890
C         6.63708272739440    3.46400270612368    7.43998064645982
C        10.46848247056449    4.50505458726483    8.37890876529889
C        10.17616550011843    3.24468066041853    7.86342073182013
C        10.97068574668566    2.15884918072648    8.18778359829948
C        12.05340230197079    2.31111945322437    9.03793329002322
C        12.34594334872179    3.56023022821462    9.56212559309244
C        11.55896287393045    4.64959797200113    9.23821495261500
C        10.72845293147504    7.25913605116838    8.01998208066523
C        11.80390336248855    7.14306268848649    7.14096989654007
C        12.79557310149543    8.10551558872017    7.13335996082057
C        12.73293959624995    9.17931731854673    8.00881111010109
C        11.67945799379907    9.28504204907642    8.90153272942098
C        10.68199418021254    8.32547155169362    8.90916458612630
C         7.58037965210011    8.29072891342199    8.73733671119754
C         7.51253610699362    9.55056857866711    8.39364937664526
C         6.27245276720630   10.28893880617970    8.19171436895270
C         6.26838670504779   11.50072830070565    7.49705758322074
C         5.08200131057325   12.16200588027235    7.26101759322735
C         3.89093488078563   11.61776244970779    7.72808572759132
C         3.88198817875917   10.43380933707371    8.45909556565601
C         5.06828726173308    9.77792250025528    8.68580603234437
H         9.29110808611461    3.42927443927389   10.55394774773119
H         7.67525287180677    2.73040095580807   10.40231282959736
H         8.30631545385785    3.16013965355567   11.98952993859504
H        10.19435522076080    7.02865199211373   11.79815072629924
H        10.33633782471007    5.28562905119850   11.53697847000942
H         9.60408218320291    5.90165482136838   13.01898754492894
H         6.94734914577296    9.16322671324691   11.67456944055797
H         8.57684954513240    8.67851577339164   12.15293178670954
H         7.20285385247327    8.28910672756247   13.18778697240643
H         4.81917415376142    8.18995309063757   11.45705863052040
H         4.32466292093024    6.64928590825937   12.15730922304682
H         4.05920823826759    6.95522198454680   10.44265726884032
H         4.35901299030454    4.60199027533895    9.94144341979250
H         4.84456467309670    3.81275494368187   11.43959038361790
H         5.52147274083942    3.27590499882203    9.90152305870373
H         7.31249059830264    6.41330869958216    4.99774890615613
H         7.94554189819558    7.69235021598804    6.08220322892688
H         9.80073864535386    6.12140791534858    5.64052558272150
H         8.76301205180811    4.74589298534630    6.06564409604086
H         3.77722349132904    5.97451885684479    8.09798906322760
H         1.69648986069275    7.21492410781812    7.58817428404382
H         1.74923110070453    9.09244157770606    5.99350050744082
H         3.87092344330288    9.72761092125043    4.90671488520983
H         5.94247890036188    8.53332362027276    5.43828001959520
H         4.61732300849343    5.09230454104895    5.26296632670426
H         4.14516691002499    2.76826976935266    4.59527225882201
H         5.25999311720913    0.89551505257743    5.74355461685219
H         6.86690181398566    1.33902119184275    7.56156814456672
H         7.33850678141139    3.68109559044093    8.23824371116971
H         9.33516688225405    3.09709663410963    7.20250142781174
H        10.74140794872860    1.18869282421719    7.77367170001163
H        12.66784158842522    1.46095423670838    9.28971928321236
H        13.19002413575009    3.68717985254072   10.22284698222905
H        11.79874934373494    5.62561086081442    9.63743964793822
H        11.87327317800348    6.29214884376022    6.47697675075503
H        13.62415271583410    8.01583705174987    6.44762128092643
H        13.51053772741818    9.92723908319369    8.00004529590422
H        11.63784424672924   10.11251604514088    9.59400894130128
H         9.85194031715243    8.39437329807417    9.60386241139798
H         8.42821643894621   10.10478570813526    8.20780826642583
H         7.19540038173333   11.91368225691978    7.12846051095453
H         5.05558697697378   13.09059467061980    6.71142195728077
H         2.94433414771868   10.05270474976851    8.83231729198422
H         5.08822169987450    8.85120526215420    9.23785212087937

