75
CSD_code = MEBXIB | q = 0 | S = 0 | Stoichiometry = C29H36CoN5O4 | MND = 6
Co        5.43646331644512    2.03165831380008    8.18918882119361
N         4.70562018984648    3.74558629570324    8.27634931291233
O         3.47542506830982    0.31554507601492    9.15954230722778
C         3.50531978601824    3.81221207648769    8.75903426804242
O         5.33550624248248    4.89135822151416    7.91739434742753
H         6.26690853743966    4.58162253572488    7.57199637525343
N         3.80189871185442    1.54185471947139    8.94931947684530
C         1.57748742272477    2.35281934905359    9.59231965750694
O         7.40229814815434    3.72421598414232    7.06329615525663
O         5.62971750661110   -0.84636172146481    8.53107256635436
H         4.69775578439838   -0.54736668478797    8.88026632045022
C         2.95861692927766    2.52557247483876    9.12167068594406
C         2.77724002375543    5.06892786604543    8.98717906386935
N         4.61859642698427    1.78758880579771    6.26869695359075
N         7.09493879570571    2.53056815859120    7.42170689291246
N         6.20160326827461    0.30757000475161    8.11950785241391
C         2.19000454593855    5.30952864500290   10.22750144243998
H         2.27317210037350    4.57264511336756   11.01207671922001
C         2.67908611203373    6.03160990586109    7.98719213515022
H         3.13324823883630    5.85149185583052    7.02482416986660
C         0.52599276943617    2.99399270099087    8.93959116980616
H         0.72769983621484    3.60913791345600    8.07452451402151
C         1.99368893323629    7.20913170188030    8.22215126243446
H         1.91630407079883    7.94857571062006    7.43878563315299
C         1.30298799576873    1.53723899772219   10.68698668961980
H         2.11229827299917    1.02936824699850   11.18849244833788
C         7.38551095964119    0.27079928772076    7.61594443381383
H         7.93641317524241   -0.65544271212409    7.51331597070229
C         7.89672303576920    1.53033252007715    7.20613502284519
H         8.86697657987684    1.65993933220308    6.74554513767771
C         6.19803666821871    2.16021424086131   10.04440874126941
H         5.94338296270862    1.22408630886658   10.55149313629402
H         7.28727579190423    2.19259627224359    9.94803748938723
C         1.51592426444831    6.49260218849683   10.45937300067600
H         1.07000766041075    6.67337657835878   11.42610210597516
C        -1.03586621655559    2.03365775927132   10.48654126763526
H        -2.05081333241573    1.91343294173278   10.83595539302554
C         0.00293790265872    1.38360261776781   11.13114185153676
H        -0.19994987884796    0.75444399764019   11.98530514392168
C        -0.77107961573109    2.83425395893387    9.38721985378203
H        -1.57949102792484    3.33524749776428    8.87470480794057
C         1.41173219954992    7.44271605373129    9.45652753116287
H         0.88034083436617    8.36510042447480    9.63844239197124
C         3.28864695692471    0.53731235916810    4.73348966151909
H         2.66887635544714   -0.32747248370186    4.55834871538778
C         3.84440357896679    0.74253159917966    5.98462765059462
H         3.64778707872726    0.04020308669017    6.78342955841699
C         4.34565121682081    2.54476538161236    4.02324206129969
H         4.57502453632597    3.28910453804831    3.27739191652115
C         4.85961971892313    2.67110930330674    5.30209422355656
H         5.49452544802496    3.51176458129170    5.54734392403100
C         3.54373055767675    1.45448965117736    3.72733570521058
H         3.12879627669445    1.32351420463797    2.73928881326775
C         5.75983114591791    3.31163554551733   10.93463507374194
H         4.67749299177529    3.29627177971717   11.06791356402283
H         6.03729971654205    4.27217583008738   10.49658449304909
C         6.42396599866835    3.20250874947265   12.31318170234200
H         7.50783641835811    3.24381666593261   12.18257078381115
H         6.18106412966640    2.23475709583694   12.75870208082122
C         4.82537244963901    4.36945225255531   16.87799583621975
H         5.31565214100931    4.62187235581278   17.81573828512481
H         5.33097519656995    3.50551112779275   16.45510732619828
H         3.79452279365126    4.09524362097995   17.09289728722743
C         5.99465533933162    4.32006958859708   13.26588049112720
H         6.67950306909347    4.32784202084990   14.11593382261675
H         6.08474522463333    5.28216357105393   12.75596251399240
C         4.56563655523175    4.14981396855411   13.77738209724887
H         3.88794279807601    4.06059145318822   12.92609455846206
H         4.49353286685985    3.22234905631724   14.34799754157670
C         4.08341093495723    5.32306580592022   14.63179358990032
H         4.12772785390681    6.23415785555013   14.02936892364391
H         3.03553411344687    5.15231317611745   14.89289626306256
C         4.87338823602563    5.55453438148944   15.92095450491414
H         5.91191067642789    5.78662964640107   15.68048721680147
H         4.45339662847171    6.42985069544636   16.42296929342875

