42
CSD_code = MEBYAU | q = 1 | S = 0 | Stoichiometry = C13H24O3PPd(1+) | MND = 4
Pd        7.94245307311175   12.49496141624485   10.76744214461032
P         7.02925601015627   13.08601114403554    8.85029593031919
O         6.03204822675576   12.19219258479510   12.06657809856063
O         8.85853738146289   11.90675897118290   12.81068240815624
O         8.22184407315222   13.21613618169173    7.78305431516222
C         9.60631749730688   12.72479354865417    9.68097768573422
C        10.87824342017810   12.57894075373036   10.20966262799493
C        11.99884440854563   12.74941374754045    9.40879175083018
C        11.87811019697740   13.07247216819788    8.06313709192763
C        10.60414050562493   13.22626605626560    7.52768695190377
C         9.49259938378492   13.05454845388623    8.33114454068797
C        13.09639404476273   13.24811394139024    7.21514837211490
C         5.89849761980947   11.83972409356693    8.09652931955492
C         6.60442860544735   10.49625337567221    8.28640667545186
C         5.62247811113804   12.16319276455982    6.63429124068721
C         6.30708837820203   14.77846104553756    8.96757012097605
C         4.98011195757747   14.70062258197634    9.71103172361078
C         7.33821160878957   15.58775529704485    9.75491408884920
H        11.03160518923145   12.33105725120621   11.25454789977971
H        12.98098023431348   12.62939592290694    9.84028470847782
H        10.46608309440223   13.48254962373102    6.48909810892109
H        13.63946791100259   12.30734259563921    7.13945997275987
H        13.76666958083779   13.98032947808786    7.66101385127267
H        12.83296326688072   13.57737986884760    6.21473116607041
H         4.96627094298616   11.84944306650395    8.67039376947119
H         6.91718081516473   10.36866139448968    9.33571859298332
H         5.95113533219017    9.67067912671571    8.01450118363323
H         7.49356886705580   10.44963088722317    7.65855365897516
H         5.01244621426971   11.38149272767864    6.18710069756501
H         5.09225814865278   13.10809139336906    6.53780725257097
H         6.55562944291947   12.23123035332006    6.07993739150542
H         6.18017249002904   15.20017555119643    7.96565480170630
H         5.11903610145977   14.17052620255033   10.65537913283741
H         4.22538498711870   14.18374633250343    9.12301340919059
H         4.61096853247286   15.69987901548325    9.92988850947849
H         7.52128441425521   15.10916327883207   10.73325123160463
H         6.98167416958932   16.60022955830153    9.92916548329730
H         8.28253958022867   15.64570452394405    9.21296908615305
H         5.46070002873252   11.43456547749881   11.90245681803325
H         6.29321704590599   12.16147803671241   12.99514670800435
H         9.40859057949681   11.11572989043213   12.75662985654333
H         9.40066852802182   12.61650031685439   13.17655162203465

