15
CSD_code = MECBHG | q = 0 | S = 0 | Stoichiometry = C8HgN2O2S2 | MND = 2
Hg       -0.37971290577999    8.59114049650052    0.50793335060230
S         2.16006603379099    9.24309847463389   -0.08171369471562
S        -2.42549563537950    7.10218579028121    1.42016251952335
C         2.19488355629374   10.82930712465622    0.35091284485017
C         2.32780096035264   12.00579432489995    0.63940690803096
C         2.35522668517474   13.37489544227492    1.01438253530931
C         0.02809532831831   14.05687318140759    1.85268724888921
C        -1.51434295430471    5.80367565939604    1.85862176315047
C        -0.93444274332670    4.79190836501623    2.21332216492185
C        -0.19731083214446    3.64274646889177    2.60526270424722
C        -1.74195675161062    1.85709868376085    3.59390822350116
N         1.08581259515739   13.74520509925851    1.46935628653114
N        -1.04700791834790    2.67613929313632    3.13604436329105
O         3.27620783544363   14.13940629289896    0.97277036878087
O         0.98927674638721    3.48542530299019    2.51164241308697

