93
CSD_code = MECBOM | q = 0 | S = 0 | Stoichiometry = C47H29Br9N4O3Zn | MND = 5
Zn        4.68143062803609    5.96063782176709    2.21451251014190
Br        4.78973883492911    3.57133211149704    4.90546873950702
Br        6.72631306668404    4.91495834964106    7.62797493678331
Br        8.38522548043286    7.78643421228228    6.42580079775628
Br        8.69061074500134    9.87430552217669    0.55211974909710
Br        7.44303821428296    8.28941399184493   -2.32059308550157
Br        4.82675181005625    2.91500947375460   -2.82233725600727
Br        2.86551275658425    1.09959424768081   -0.61923993844496
Br        0.14514140027188    3.17161776272216    4.63738231880663
Br        0.28159117357691    6.46631695166596    5.88806373254962
O         3.87381288610634    8.05398738443708    3.01706899199563
O         6.44996799850193    5.32602687908376   -2.03046608690152
O         2.88389637021584    8.47114049378803    5.08859905820908
N         5.94368811392463    5.83781509494614    3.74903004860007
N         6.14370773611429    6.71707799305891    1.18123527336439
N         4.20666169229396    4.72115705706934    0.76198059892452
N         2.91644191580831    5.64801993943610    2.92530202313963
C         5.82963178537886    5.10690062509060    4.84994127508150
C         6.60916708599296    5.60932471613382    5.89673151648696
C         7.24638941307338    6.72993815137187    5.38174421155122
C         6.83913202369944    6.85443852995158    4.02025466733696
C         7.31439169942296    7.75189230662205    3.04906555722125
C         6.99332598378951    7.67828032201113    1.69299422462265
C         7.54938227948511    8.39328538943342    0.58609948392507
C         7.05856290893985    7.79470956495612   -0.55976497404642
C         6.20451019000809    6.75196652660748   -0.14019918046018
C         5.51659538067295    5.80592987040356   -1.08399834766934
C         4.76201041276311    4.67031376730366   -0.44361509518171
C         4.38548061068393    3.47855208761064   -1.09543974481216
C         3.57921858014108    2.77792244917670   -0.21520741805619
C         3.43146425751145    3.59010876609526    0.94793809788228
C         2.55366227090850    3.42106779760982    2.02469581287748
C         2.28482935906022    4.42573869919244    2.96526943765015
C         1.31132838872260    4.48324436755859    4.00354987690575
C         1.35817335467890    5.76879526442565    4.52758741956285
C         2.36790384613127    6.44656950577882    3.83157123910925
C         2.69587000530417    7.91214605407779    3.82589029820466
C         8.30687548279788    8.76467675742946    3.47072014252426
C         7.89704144574833   10.01256739699512    3.92483792955264
H         6.84343533500414   10.24405942343677    3.97723222217895
C         8.83891804239052   10.94958455806822    4.30857834923613
H         8.51432724485194   11.91718464094058    4.65909418075028
C        10.18813508703614   10.64839081555902    4.24438592569862
H        10.91978317591226   11.38170537227013    4.54568000152560
C        10.59878833495826    9.40512507239496    3.79434781852735
H        11.64943475728536    9.16466423250551    3.74361412514821
C         9.66412048249130    8.46398985789465    3.40655463735962
H         9.97719641635453    7.49191345934544    3.05382679912843
C         4.44673360341213    6.61598148327164   -1.82369988782982
C         3.57487169539565    7.40510703125804   -1.08536522471450
H         3.66567492854023    7.43793251178001   -0.00535150157879
C         2.60084195610559    8.14588952078374   -1.72807870320332
H         1.93091239802267    8.76578458339952   -1.15045895895801
C         2.49224616099013    8.09518935949839   -3.10869116011966
H         1.73232310786242    8.67521369545304   -3.61029015581154
C         3.35998242214134    7.30464250431036   -3.84165704289291
H         3.27995544130208    7.26391649979729   -4.91711678801322
C         4.33993996613267    6.56261115734770   -3.20397589952686
H         5.02813046213568    5.95422769186105   -3.76725869685694
C         1.79674068617452    2.15678241677294    2.13265620314317
C         2.33872800929956    1.08980400737924    2.83975890205929
H         3.30623811951393    1.19738682195888    3.30776372174537
C         1.62955440108146   -0.09237056989243    2.94864361928823
H         2.05400447842990   -0.91680233455370    3.50052921446621
C         0.38539932702082   -0.21704294146035    2.35496058923539
H        -0.16306694837937   -1.14233304373576    2.43990971582666
C        -0.15658219143874    0.84641711761919    1.65351935396117
H        -1.12728578968280    0.75488406297801    1.19104415609805
C         0.54299134350115    2.03313739198631    1.54260138643222
H         0.12601822217804    2.86776435126923    0.99738103002536
C         1.48391761326235    8.58037585666285    3.17766863480342
C         1.10867888889950    8.18912393153443    1.89752723875253
H         1.68608626567514    7.43867371698557    1.37558577694373
C        -0.00545977467228    8.75117676108877    1.30222996734423
H        -0.29684076818282    8.43875526197226    0.31036280801113
C        -0.75324438329092    9.69796241715160    1.98330573675206
H        -1.62784731379381   10.12920747123699    1.52031758173790
C        -0.38223372487027   10.08177240154857    3.26012616260792
H        -0.96557526994230   10.81377638003148    3.79718426506916
C         0.73397902245484    9.52533385588271    3.86128855124300
H         1.02386452443574    9.81084923667300    4.85895488458110
C         7.53030040885402    4.60184078322033   -1.48967883041246
H         8.20545785946030    5.24517374018473   -0.91409901665642
H         8.06239772603980    4.19157668368912   -2.34524464017151
H         7.19136826774930    3.78463992801074   -0.84389484321893
C         3.84806317232274    7.84787007012423    5.91072807715453
H         3.63685670109582    6.78159009211345    6.03861366152824
H         3.77932175802683    8.34765951538371    6.87424414341932
H         4.85520204190955    7.97202480704176    5.50165480237126
C         4.16310080085266    9.40589092385683    2.69421491443097
H         3.43191457218965    9.80229123378535    1.98369046574050
H         5.15280590758579    9.41466611473202    2.24347351892134
H         4.15441744019579   10.02091386289155    3.59803936443572

