69
CSD_code = MECDON | q = 1 | S = 0 | Stoichiometry = C36H30OPPd(1+) | MND = 6
Pd       -4.23737526155169   -4.67232943945893   -9.78540669994360
P        -4.30074455126697   -5.74604657524148   -7.80299439512137
O        -1.78765915706582   -5.70250594607269  -10.52795897599377
C        -3.87678838623264   -6.78264693036553  -10.49395228742982
C        -2.97369186133098   -5.93153024760792  -11.17839721157244
C        -3.23855425138282   -5.55317533433333  -12.52429040202386
C        -4.42303744173153   -5.88916718698767  -13.11501130984879
C        -6.67098839833966   -6.90556477228929  -12.99748227781101
C        -7.58365161575683   -7.68226675693328  -12.33586042579001
C        -7.27826680952155   -8.21021693041954  -11.07445173533959
C        -6.07654107888753   -7.93563394329336  -10.47730714993517
C        -5.42445190830179   -6.60395162150158  -12.41396415226533
C        -5.13621349911298   -7.09956807562587  -11.11285794542755
C        -0.77728681678872   -4.96275472524959  -11.19182447326687
C        -3.33939763250701   -7.66360081328305   -9.41308784932348
C        -3.41411459152830   -7.29520263528797   -8.08695124837006
C        -2.86897075710622   -8.09272421334611   -7.06422006448194
C        -2.25798789777727   -9.26842778299246   -7.38913714394050
C        -1.54684185378401  -10.91248148128644   -9.07489439375532
C        -1.46336833138959  -11.31528551457981  -10.37839847095521
C        -2.00432311897175  -10.51911075544483  -11.39947127306372
C        -2.61767901401482   -9.33343044079260  -11.10461496660106
C        -2.71925960799088   -8.88815080549192   -9.76878043930846
C        -2.17353181969956   -9.69641303398296   -8.73258893835313
C        -5.98775438261545   -6.25498229590989   -7.38059956051197
C        -6.99775215828460   -5.84534032500159   -8.24963528355644
C        -8.30272041522150   -6.24442185521186   -8.02916903572073
C        -8.60052093927200   -7.05639249040030   -6.94566326702248
C        -7.59380830821302   -7.48442405503890   -6.09401542951516
C        -6.28436218547307   -7.09382441879349   -6.31085912032906
C        -3.45867727359737   -4.94922845121608   -6.41715722033284
C        -3.93106961133068   -4.85652222795268   -5.11528733784337
C        -3.16148000203252   -4.20813627009313   -4.16262201260362
C        -1.93963337109087   -3.65444870669108   -4.50756321990943
C        -1.47778195546514   -3.72930560465041   -5.81482781916296
C        -2.23934555642162   -4.36917413774540   -6.77174139522428
C        -4.61924469987703   -3.10377160717466  -11.35306540246079
C        -4.14029331470149   -2.55313105712757  -10.18077977529358
C        -4.81086460630676   -2.85065482960672   -8.96216235061486
H        -2.48393820211520   -5.02642747119856  -13.08868940946849
H        -4.61045052738518   -5.60824782851293  -14.14037320595176
H        -6.89001495854031   -6.51449182590833  -13.97985081058595
H        -8.53675343322895   -7.90564844789730  -12.78939992459800
H        -7.99610158297466   -8.84074611861450  -10.57294802960179
H        -5.83784050628324   -8.34906996022377   -9.50757196413123
H         0.04247766917253   -4.88925056192507  -10.47929019085473
H        -1.12230404189809   -3.95647011548393  -11.45495735237900
H        -0.42776378161363   -5.48447506929500  -12.08680517706317
H        -2.92393889869407   -7.75337681457240   -6.03967767933765
H        -1.82495017238741   -9.89107071734921   -6.62049211310271
H        -1.13372212076502  -11.52055730202423   -8.28400137062954
H        -0.98222979393746  -12.24743668217621  -10.63138773982832
H        -1.93325109765524  -10.85118062117057  -12.42398829246232
H        -3.03595422703347   -8.72771646107884  -11.89488218449625
H        -6.74396904714539   -5.22285527529867   -9.11423439601234
H        -9.08648835360496   -5.92842335632504   -8.70059120262042
H        -9.61926067839027   -7.36549984175973   -6.76984599589386
H        -7.82974060435742   -8.13005492529043   -5.26187193010530
H        -5.49520429320213   -7.44864533223270   -5.66362626368472
H        -4.89180405279709   -5.27346525529927   -4.85102090641451
H        -3.52005561918800   -4.13305546938630   -3.14740347790077
H        -1.34740841819487   -3.15265917181136   -3.75805355536659
H        -0.53116585160173   -3.28312698667893   -6.07950394064764
H        -1.91211855858777   -4.43074332995815   -7.81130812724441
H        -4.09949861517062   -2.93154888737466  -12.28712031241701
H        -5.68047290114679   -3.35313323989014  -11.44802066418376
H        -3.16424207616408   -2.06742674131071  -10.15672115331549
H        -5.90218862269525   -2.86321391066716   -8.96888039364142
H        -4.37741219049145   -2.47983798481038   -8.03632977603506

