91
CSD_code = MECFAD | q = 0 | S = 0 | Stoichiometry = C26H44B18NiP2 | MND = 6
B         8.44087439335918   -0.74169903692099   16.59394872207877
H         9.34423396911384   -1.42267947776904   16.25334523335117
B         8.57479952339820    0.58883196713958   17.76764137605054
H         9.58644528524359    0.88281409785987   18.30972555080336
B         8.39089551033510    0.91006154928528   16.01786098916106
H         9.33353717723130    1.24369272260304   15.37980252034623
B         7.14571883622483   -0.22999221750038   15.41548788750014
H         7.20291730944613   -0.62454631146612   14.29437577519600
B         6.80331222017820   -1.36362505046652   16.70883304149367
H         6.58686096582080   -2.51157337468472   16.48141854984443
B         7.69251732158206   -0.89082458183988   18.18108407022509
H         8.07965259950524   -1.66185153610761   18.98645758782775
B         7.50507185389233    1.90312774457293   17.23616250443646
H         8.18296989716497    3.00978078791088   17.45067628526973
B         6.82300038362337    1.52673010162141   15.65999999685257
Ni        5.07873386446826   -0.13141000202059   16.01925691164009
P         3.00963402566055   -0.32023475735021   16.83522985315252
C         2.41486997032060    0.88962208622321   18.06654576288458
C         2.08174928157376    2.18609436673787   17.68609445813596
H         2.10552016248758    2.46323931601483   16.64291451619755
C         1.73515249276345    3.12957053627497   18.63530227912700
H         1.47530048946411    4.13138679037789   18.32714292788392
C         1.73114654116603    2.79429286180293   19.97923202665123
H         1.46120486768055    3.53147270227533   20.72051125446714
C         2.08575770302945    1.51320842050617   20.36966662649109
H         2.09527546775242    1.25063146991247   21.41734658892480
C         2.43363470117649    0.56947081595161   19.42122522569051
H         2.71811361476927   -0.42697086049217   19.72805662591353
C         2.27164170642392   -1.85015948135467   17.52364000718787
C         3.04363440379913   -3.00219975902420   17.59606830011549
H         4.08002772527591   -2.96041148952358   17.29563934913234
C         2.49670521984760   -4.18417314272484   18.06476817538233
H         3.10495106348029   -5.07475340502917   18.12034316308140
C         1.17243812330247   -4.22350771595331   18.46580809361983
H         0.74326941940963   -5.14413255357141   18.83298202420402
C         0.39706727217518   -3.07639060785284   18.40094367568555
H        -0.63527930612764   -3.10378584781628   18.71858581456725
C         0.94199457255894   -1.89599965841230   17.93162318522205
H         0.33629316791494   -1.00155942832508   17.89065783619864
C         1.77977827602014   -0.07831298720623   15.43950455022504
H         1.49995989368016   -1.08151130119986   15.10474166493468
H         0.87875006640756    0.42196747049349   15.80267364336215
P         4.10377526292070    0.01150713763006   13.94080359478664
C         3.59184465851337   -1.67715931817575   13.43314782793763
C         4.02773160206923   -2.74063395058556   14.21254838351157
H         4.69798458238409   -2.53133908085010   15.03884194555368
C         3.62996700538271   -4.03383160399455   13.92494978674929
H         3.96884168744544   -4.85433005086574   14.53970290251696
C         2.79785962481144   -4.27303940063742   12.84417984499765
H         2.48244342363831   -5.28030214794326   12.61464418549901
C         2.37564935537606   -3.21921308324654   12.04861266475861
H         1.73618624386466   -3.40851640430013   11.19834874195378
C         2.76918023876991   -1.92592997350094   12.34023488568491
H         2.44453155556939   -1.10797508493746   11.71162341651019
C         4.47003134245282    0.68924969219956   12.28609101903779
C         5.39293927821454   -0.00927672084788   11.51078307770474
H         5.79784602928654   -0.93833114722685   11.88782039282589
C         5.78621053751576    0.47233722419731   10.27772195685465
H         6.49834059056537   -0.08118980947882    9.68323432355656
C         5.27172352190254    1.67003317866747    9.80651714831778
H         5.57975146261286    2.05111963849145    8.84415474184913
C         4.36662486331949    2.37934004148135   10.57682240092306
H         3.96946925036917    3.31677690502680   10.21601604239386
C         3.97011461271197    1.89566038737288   11.81123355154384
H         3.27189520369433    2.46709125005717   12.40304404562291
C         2.39508967913302    0.68160990832207   14.27081724969250
H         2.49818337883563    1.73921394912086   14.52038180805388
H         1.76451024289043    0.59617609135045   13.38213682213010
B         5.96242417704829   -0.63829743006459   18.02516331505639
H         5.84752422232348    0.60191713221448   18.28211041624432
H         5.18735096772490   -1.19898431836848   18.72413107968234
B         7.08945137411617    0.75643627403113   18.63046303316998
H         7.05643722428989    1.15021262225747   19.74478652459079
B         5.95215187291203    4.18739584806246   16.16833885689762
H         5.08752269709919    4.92263836404616   16.49369577366028
B         5.91439735390042    2.55878462861576   16.80666172695338
H         4.93361307152160    2.27649406923230   17.41078690138047
B         5.77806760214501    2.79587683453848   15.05383328590248
H         4.74720305987405    2.54776322152023   14.52588188937984
B         6.61000405834869    4.34390968791128   14.53325794706623
H         6.06188171378312    5.07981156934706   13.79253673485319
B         7.12228777613457    3.75619168540829   17.41924557025374
H         7.01545405267203    4.21720640322956   18.50219840013169
B         7.17104863093067    2.71793526364367   14.06969941314246
H         7.11658768806496    2.25792446289480   12.98552152699560
H         8.44403518927555    2.78376710563154   14.38400504407975
B         8.30376819840365    4.05715945947488   14.46612668716544
H         8.71899144319820    4.23412595948327   15.68775489060430
H         9.05738544228840    4.58547437614014   13.72972306194223
B         7.57891794745168    4.82725522998344   15.99625563753072
H         7.83623696963636    5.96036270049249   16.20528489183971

