85
CSD_code = MECGUW | q = 0 | S = 0 | Stoichiometry = C24H54Cl2N2P2Ti | MND = 4
Ti        5.43397940784838    3.50450966631932    3.00886099017934
Cl        6.40208677234761    5.26595671074604    2.11134408070546
Cl        4.43788134121709    2.47552072214925    1.33670576035479
P         7.68608444091604    1.52079310842272    4.09604718245096
P         3.19975104410674    4.60851457122121    5.00952049765325
N         6.78399001432546    2.76897871557731    3.93739736727604
N         4.10487271170741    3.64213939035891    4.20710766972618
C         7.92071276347226    0.56889177251077    2.42535742103816
C         6.62918194733302   -0.20691287620058    2.15903648274704
C         8.03829965677251    1.61767082509524    1.31547766068998
C         9.09696846969837   -0.40324257802946    2.37740528814065
C         9.38992426817370    2.15732682432274    4.72793026533058
C         9.11241972692119    3.28290139061671    5.72743673395995
C        10.06620911107464    2.82301422995521    3.52789286448688
C        10.32043903201468    1.11460978385764    5.33652857879986
C         6.87180571609448    0.34071722899890    5.39266498469574
C         5.37870953007170    0.25573643575137    5.05445965697410
C         7.47752167079234   -1.05169016001508    5.53279171642388
C         6.97348103049002    1.07778931570621    6.72838211277783
C         4.02720376760335    4.92851326181962    6.72694535387021
C         3.42139025741660    6.03134882193879    7.58837649460791
C         3.94161574345492    3.59553392483842    7.47102591755242
C         5.51646688871215    5.18948010737878    6.47174535110363
C         2.94435739422119    6.29789525014350    4.09742319626978
C         2.81129599242914    5.99437847209211    2.60216808965069
C         1.76820116501547    7.14085382701181    4.58401906399145
C         4.23360712903638    7.10370720051472    4.26854984298708
C         1.50543975018700    3.71897732672636    5.22154915091670
C         0.58074091607792    4.27154680173914    6.29999529178712
C         1.79737406483434    2.23667321030381    5.46704555673812
C         0.81581458174748    3.78759550954345    3.85766423132579
H         5.76137230519994    0.44638660795542    2.27954267806129
H         6.53369612695569   -1.07177128748981    2.80902312730422
H         6.63065188034772   -0.57311903736091    1.13172739031281
H         9.04057970764858    2.02473967431340    1.22598967586205
H         7.33790133955528    2.44301816810275    1.50299936065949
H         7.77754881103327    1.17056854860207    0.35609661395278
H        10.05421050064726    0.10782256846769    2.42750879852599
H         9.06579441242120   -0.94912739246860    1.43375592604534
H         9.04697753817090   -1.12742803285743    3.18588567904767
H         8.84370181295493    2.91656231585826    6.71183681357386
H         8.30316700545379    3.90755710401460    5.34534283853882
H        10.00207298656916    3.90191338528780    5.83829835191652
H         9.35989383428034    3.49381284890915    3.03781721370775
H        10.44339695509599    2.09818326299561    2.81308324997331
H        10.91591425994984    3.41648666546374    3.86648317683446
H         9.92911620225324    0.72460271406163    6.27245514634280
H        11.28342221471727    1.57951762732108    5.55078471764727
H        10.49241897464596    0.28348824944132    4.65906951713830
H         5.15809930056472   -0.51544298739403    4.32354254201739
H         5.03158804072015    1.22508252935538    4.66847791008140
H         4.81048658617225    0.02085892885034    5.95455119549792
H         7.32822474133850   -1.65381234391556    4.64112352994388
H         6.99258543664828   -1.56703083902424    6.36274747065149
H         8.54211231915342   -1.00400942155995    5.74307651122097
H         7.98259620249735    1.04862370028053    7.12891397659746
H         6.31746118091966    0.61070894863982    7.46344847218772
H         6.65886543706040    2.11143114129720    6.59072255251275
H         2.35895307606955    5.87293927619395    7.74984939692179
H         3.56123045659468    7.01523943917665    7.14982209084961
H         3.91403478207530    6.03192228020242    8.56147926691426
H         4.25520404095219    2.79360683052023    6.80404846615045
H         2.93717677290931    3.40168178086792    7.83588475464739
H         4.60581058516227    3.60673493851764    8.33566074411262
H         5.85954077429735    4.57702671689813    5.62546788025810
H         6.09532927917121    4.91274428929360    7.35296659781323
H         5.72802106822595    6.23284895204286    6.26161468481342
H         1.80486411447588    5.70066177979205    2.32062259312400
H         3.50582557597441    5.19186254560453    2.31887582957365
H         3.07074722251502    6.87967405839971    2.02146554853937
H         1.82967345582624    7.32985575152665    5.65219044802888
H         0.81150854730208    6.67356923714185    4.36858468830422
H         1.78655066177808    8.10260220796599    4.07012166311920
H         4.33841271760385    7.49285540618135    5.27706796326761
H         4.22041729707003    7.95874150625567    3.59169380402567
H         5.10151390577840    6.48984189462033    4.01491388969896
H         0.98192971285498    4.10613182225280    7.29640979676012
H        -0.37951116834240    3.75778105425805    6.24236185886402
H         0.40093445899898    5.33465686878968    6.17042228266436
H         2.08349656376954    2.02683334507093    6.49145333103339
H         2.59901727330192    1.91623992118182    4.79937849356697
H         0.90870319316473    1.64652480407495    5.24588064357176
H         1.51841618459931    3.48970101293289    3.07882453494865
H         0.42483491066855    4.77740912555029    3.64308768145642
H        -0.02581788187765    3.09476071611510    3.83539177560707

