91
CSD_code = MECHAD | q = 0 | S = 0 | Stoichiometry = C26H60N2P2Ti | MND = 4
Ti       -1.09382212138827    3.54817969452431    4.51806974378444
P         1.16979447723842    4.69210737431053    2.48233973662544
P        -3.38284086977523    1.54459455082601    3.36907457242436
N         0.36605021152102    3.76856041004518    3.41182602317806
N        -2.56918668968022    2.80815952491850    3.69197713986461
C         0.23854635403474    4.95141281198382    0.79591608546609
C         0.75144571038143    6.04292208583868   -0.13790119178439
C         0.32135875038957    3.60102188373000    0.08407070367332
C        -1.24015765642970    5.17619317421977    1.13082168687687
C         1.48740478427179    6.44447522877997    3.26734442533679
C         1.75705921108496    6.21343401526715    4.75643407247163
C         0.15858025329115    7.19669450856048    3.18101130469718
C         2.58641053033533    7.30198133022280    2.64771730963797
C         2.87872181726790    3.85027115352180    2.14640263099023
C         3.67712772008159    3.99402325427406    3.44306426527074
C         3.70473342991750    4.37919577082115    0.97957011733471
C         2.60816948465143    2.35269899756409    1.98311648271658
C        -5.09459227289614    2.10843507750939    2.66487486072617
C        -5.93472896724660    1.06443240272803    1.93834204372468
C        -5.87885806858977    2.65221686427652    3.86011512320700
C        -4.82501214895623    3.31145962896171    1.75785163418547
C        -3.69451974140888    0.43690955588513    4.93828162128598
C        -4.80279431110712   -0.60749999493578    4.84859693851189
C        -3.94643299113235    1.39556732973567    6.10484885314821
C        -2.36880057811226   -0.26571846379550    5.23465424706171
C        -2.46995372876485    0.45708207951577    2.04090682651855
C        -2.99263386780860   -0.95496521804189    1.79708324260976
C        -2.55840397838867    1.25662689923161    0.74097461857774
C        -0.98797864701362    0.42544878749359    2.43068107104861
C        -0.17429341322456    2.56788085551674    6.13195211127378
C        -1.98977984508023    5.21107153586468    5.43673152845214
H         1.80986306565190    5.92219909382627   -0.34976093052578
H         0.59101358201718    7.03789933212691    0.26784609004926
H         0.20978652705816    5.98289636122774   -1.08329323801911
H         0.08587528408044    2.80859441462575    0.79282884686657
H         1.30446066052089    3.43022808767427   -0.34485905913559
H        -0.40093805499644    3.56206345510437   -0.73246484642339
H        -1.51915412458078    4.56336405525249    2.00281757525706
H        -1.86035888751367    4.87695656423775    0.28500209631534
H        -1.46633172447431    6.21715643135633    1.34131344177555
H         2.79560284321881    5.97359963278638    4.96048206022255
H         1.12450165025103    5.39126698799473    5.11183797069812
H         1.51174917300250    7.11028129878301    5.32638131333074
H        -0.03510015694053    7.56062067830491    2.17624344207724
H         0.17985362877045    8.06596604893056    3.84037730182103
H        -0.65404511356656    6.53996053657176    3.50094627958925
H         2.43367778037081    7.43720964435884    1.58092984345478
H         3.57376588863430    6.87680411621509    2.80552245871489
H         2.57465304318042    8.28702330578895    3.11727165591269
H         3.04539987829176    3.72336453904767    4.28850926999418
H         4.05962113444304    5.00113291644898    3.57751015575317
H         4.53486098941557    3.32040612799431    3.42792916182691
H         3.23645671886526    4.16625103627573    0.02230157948732
H         4.67983972355460    3.88959379648065    0.98433730522740
H         3.86689633355885    5.45031926437317    1.05555653349948
H         2.28196758763037    2.09119363793234    0.98228669164468
H         1.84050833811934    2.05207635264251    2.69912178981834
H         3.51574308008454    1.78623485847688    2.19095809914817
H        -6.10088205962537    0.18447552679869    2.55260225639897
H        -5.47499589358342    0.75340937006535    1.00408120164924
H        -6.90765908715326    1.49603829400477    1.69803206691364
H        -5.23798555390394    3.31394603965571    4.44202487402696
H        -6.25946882028502    1.85784703062614    4.49471012269799
H        -6.73712391092971    3.22773861614237    3.51085064931932
H        -4.04826354489887    3.92961829411024    2.21250596510624
H        -5.72923765080770    3.91148963683265    1.65685496054826
H        -4.51107164533842    3.02357972659575    0.76040022086282
H        -5.78720201092297   -0.15307345586438    4.77822168443481
H        -4.78771618794927   -1.21917194443710    5.75219919589409
H        -4.66286657388333   -1.26547402937803    3.99582061604272
H        -4.98103474245292    1.71756906173030    6.16547031744575
H        -3.30471272718647    2.27724156444907    5.98896842648538
H        -3.70030678804118    0.90985184950420    7.04968953284593
H        -1.55080356095563    0.45570000841439    5.16961327096254
H        -2.18736997620115   -1.09169707776136    4.55318403674076
H        -2.38539596256573   -0.67847575160205    6.24465313935249
H        -4.05310173757424   -0.95309822335438    1.56240087359256
H        -2.82834359273241   -1.60612467888265    2.65109330912262
H        -2.46072505992561   -1.38728416625929    0.94795017584100
H        -3.54639040229731    1.19244190196054    0.29452895972099
H        -1.84610259488388    0.86845656409189    0.01161291425103
H        -2.31314853809958    2.29779357681113    0.94462281716621
H        -0.76080233651176   -0.36421698736666    3.14053900687296
H        -0.69907540127387    1.39544790530907    2.86601848457508
H        -0.37640523460415    0.24784910316782    1.54517177180697
H         0.47568736900155    3.29193363437562    6.64968983480022
H         0.46866648861408    1.72720198583932    5.82490162363193
H        -0.88273138004515    2.18708421425871    6.88175952719639
H        -1.26987768967365    5.91740436005799    5.87464663861404
H        -2.62136127162546    4.84944173500786    6.26448483537251
H        -2.64727360780793    5.78272063091018    4.76191397241350

