119
CSD_code = MECHEK | q = 0 | S = 0 | Stoichiometry = C62H44F8P4Pd | MND = 4
Pd       15.49183950916256   10.61958749430689   12.15796816950987
P        14.39107406782121   11.30220700395111   15.05481098471468
P        13.61403581742407    8.42963722910565   10.83733268640512
P        15.95225842835071   12.03134316747250   10.43017327304859
P        17.75115765889961   10.58173085940052   12.44511557280456
F        14.09090784364925    8.75465874297730   16.99572658520395
F        14.92783179808172    6.23781057212029   16.42029840497914
F        16.06474636352552    5.69055505409467   13.99768984507044
F        16.25523156143040    7.70630996673056   12.10393408885053
F        10.50882841434340    9.25279059462039   10.69422061267509
F         9.49694248597494   11.68035564766046   11.36493764049524
F        11.14659207518127   13.63897094825408   12.31522574694661
F        13.83724864266537   13.08317892024812   12.68489807373206
C        15.21926314660922    9.22330133442452   13.55871035584588
C        14.70856273554292    9.50692573006318   14.82728853737039
C        14.60634905395335    8.50136091050866   15.77858403735122
C        15.03199671331373    7.20864053825238   15.49410127574610
C        15.59425238629566    6.92291758567094   14.25429291979908
C        15.67048224536957    7.93669344240871   13.31402282465353
C        13.52418893298043   10.88280636375715   11.94236898786879
C        12.68362777871182    9.91479413460150   11.38819382604267
C        11.33482708454855   10.18531936381869   11.20368204324499
C        10.80636830308038   11.42574546444206   11.54326285524859
C        11.64102175072214   12.41890137657832   12.04508487795719
C        12.98011603056544   12.12232493553515   12.23656993010927
C        14.94010124254216   11.48484495591603   16.79177020070805
C        16.29558822353357   11.26337685627747   17.02118916911418
H        16.92829418310675   10.96262259696252   16.19481405438027
C        16.82845934657781   11.42066763743802   18.28461002080903
H        17.88041656979050   11.23873098214951   18.45340547445517
C        16.01154535781201   11.81558943890101   19.33208109846136
H        16.42431101907748   11.94002119993974   20.32250153696550
C        14.66592368763367   12.04946126063031   19.10679129327674
H        14.02781625853473   12.35501109021524   19.92342078020576
C        14.12816673970864   11.88968115317075   17.84162449846722
H        13.07571671213568   12.06742095144887   17.67565899076718
C        12.57440980267975   11.36575448462186   15.22121128270253
C        12.00644572232794   12.63498197299292   15.31834243302223
H        12.65429128739293   13.50128140895037   15.36012053555671
C        10.63345823207065   12.78587541065576   15.34524575246418
H        10.19977442030751   13.77238399318757   15.41714439326499
C         9.81424888288831   11.67128339900735   15.25557173245288
H         8.74073571118074   11.78804622201660   15.25760429300702
C        10.37382937833539   10.40883367398317   15.15489421240374
H         9.73501913582570    9.53986911967313   15.08506727280758
C        11.74901082891681   10.25262209547007   15.13861270621407
H        12.18001163072474    9.26569578670675   15.05960311964515
C        12.71048614234953    8.06817754089076    9.28669488542056
C        12.79520465030045    9.04389176350161    8.29682642251090
H        13.33416039669344    9.96049713574798    8.50410888985187
C        12.19802145747344    8.85063866943227    7.06769054957725
H        12.26297766088381    9.61800813591917    6.30932148474310
C        11.51990708129431    7.66995759964319    6.80957568295333
H        11.05126749312751    7.51436606382023    5.84886321666088
C        11.44382926198514    6.69121237384935    7.78543409655429
H        10.91358087413956    5.77116446947691    7.58593580747430
C        12.03894563864838    6.88359772454468    9.02005393148547
H        11.96912435537835    6.11750955906930    9.77838937253063
C        12.98742875122012    7.12976405093158   11.95523772308091
C        13.59090149518196    5.87796775453937   11.84599964747349
H        14.33712211130212    5.71700600341433   11.07837386710121
C        13.25199248648688    4.86037337935838   12.71672137575445
H        13.72547886411609    3.89368715167562   12.62833019283278
C        12.32130763426382    5.08964590820417   13.71809232348187
H        12.06810182269759    4.30132699378065   14.41127880465096
C        11.72302803216577    6.33288767618025   13.83373256025404
H        10.99778012491323    6.51183548605259   14.61478418736735
C        12.05155348471932    7.35166042406743   12.95618883369853
H        11.58137291499802    8.31903305250811   13.05132229258132
C        18.10526058114101   11.84450444473597   13.70457862313620
C        17.13542973364064   12.82558295227632   13.90775371294341
H        16.21233901265881   12.80542276156120   13.32602163424967
C        17.33864370183355   13.81130012855205   14.85687708191614
H        16.58059248676642   14.56238569750160   15.01982375551639
C        18.50503843008284   13.82273941218078   15.60435245020501
H        18.65771828563221   14.58261110115945   16.35613462277680
C        19.47695447452130   12.85758651426851   15.39249299334080
H        20.38783770668790   12.87088058831236   15.97299841367596
C        19.28378270224310   11.86998958964229   14.44305845946001
H        20.03784213433558   11.11088829720309   14.28346440413278
C        18.79271487826772    9.18196749184930   12.92465616750664
C        19.65921324727015    8.52846508952031   12.05672173698108
H        19.80527951599037    8.89512213309361   11.05122502370290
C        20.33628279075684    7.39848365729882   12.48196006891403
H        21.01179504184215    6.89459304660167   11.80640739267891
C        20.14327454307322    6.90643350345981   13.76160458684869
H        20.66675621457881    6.01910082710391   14.08386092011500
C        19.26870894302803    7.54617209832684   14.62658854128800
H        19.10785678878661    7.15844573300653   15.62152431713215
C        18.59283675954351    8.67513402849248   14.20908731769119
H        17.89847311517780    9.17605447095940   14.87351959026516
C        18.56673335067755   11.35462517692486   10.96536777044401
H        19.59219100756245   11.64745180331452   11.21579797867093
H        18.59353497901919   10.61094331104482   10.16158148734613
C        17.73202279807827   12.55612336659266   10.52783125312486
H        18.06024183119340   12.94148171444328    9.55635329123672
H        17.81343807117879   13.35338325208902   11.27453937960972
C        16.00397198593315   10.98359574466954    8.94497522744813
C        15.85095122230466   11.48372684391927    7.65607638203625
H        15.69005136676424   12.54246940573075    7.50284672792886
C        15.88688428700221   10.61942486841162    6.57635318661179
H        15.75716277892393   11.00685509487259    5.57635248993385
C        16.08113436467471    9.26148678992911    6.77442066349910
H        16.09370137572435    8.59168129195809    5.92760126320686
C        16.25464768036542    8.76322140729689    8.05535274339006
H        16.40703166172076    7.70604027993857    8.21193439405750
C        16.21685453763546    9.61953788326431    9.14119295086479
H        16.34016711538255    9.22921749167401   10.15274839272036
C        15.02128598016570   13.49171736414023    9.90607900101909
C        13.73766998176556   13.26091894146772    9.41033583296108
H        13.39341727601195   12.24067382566294    9.28767716812552
C        12.91453118957361   14.32002649536631    9.08429574847492
H        11.92156469578914   14.13375711730077    8.70296207647503
C        13.36174329722413   15.62059786990494    9.25981834957036
H        12.71645371443932   16.44998404193691    9.01291591191529
C        14.63030585180387   15.85525289283344    9.76231553616299
H        14.97454302319406   16.86886346535368    9.90618584209480
C        15.45905437826912   14.79723572572464   10.09379468723576
H        16.44098117416400   14.99171097951232   10.49974729404215

