78
CSD_code = MECHIL | q = 0 | S = 0 | Stoichiometry = C32H45Ir | MND = 9
Ir        4.01188065497516   10.88893889937170    4.62905691909727
C         6.13942369443721   10.37439697709437    4.74932548817429
C         5.98605792869595   10.93183887047093    3.44377737999108
C         5.55981644943515   12.27938385921568    3.58645704948121
C         5.52892060623296   12.60079265272112    4.96940974989341
C         5.85150087725425   11.42211007364635    5.70693293395830
C         6.80260768303621    9.06954313791849    5.07342269723504
C         6.32994314655922   10.22908608297378    2.17004526839886
C         5.36838760513612   13.25588659673956    2.46960705515810
C         5.31225880916583   13.95640906917654    5.55596758812958
C         6.16514917275606   11.35413401228501    7.17086261355585
C         3.37001899046132    9.52845451223452    5.94615138347232
C         3.06095877644634    8.69272521508045    6.75810411878059
C         2.67816171572696    7.67600718265625    7.73949921852489
C         1.34979171440188    8.08067822910078    8.38871570352286
C         2.52227509835821    6.32811240665397    7.02614118430576
C         3.77277704880427    7.57753048811169    8.80829736630740
C         1.99900440776905   11.80991110394606    4.81639677883620
C         2.32422338185108   11.41783188454679    3.48916385848980
C         2.49964746400997   10.03035979586477    3.21264307139512
C         2.95375767226622    9.63065597935002    1.89777471049142
C         3.14647939882040    8.41700401952323    1.34950773596049
C         3.61351980223009    8.37486703318106   -0.07899604074577
C         2.92185608683241    7.08540024743390    2.05345624399514
C         3.79358065994118    7.00113542389403    3.31408086567671
C         1.43797233216184    6.92565598765458    2.41971812386843
C         3.29213748877295    5.88479565588751    1.17005116302375
C         1.91885609332088   13.20305255127961    5.25370083373175
C         1.75267917262669   13.46401224648447    6.61863979885784
C         1.69944680186371   14.75655690337902    7.09746687748705
C         1.79938576255258   15.82941732861633    6.22459945160704
C         1.95047761721339   15.59039162262187    4.86948664033456
C         2.01363543951855   14.29573015749033    4.38875931315796
H         6.69349599396883    8.36645712884438    4.25203429739993
H         6.36503709513697    8.62606408816558    5.96453623225119
H         7.86767404582834    9.22936377397790    5.25419788769975
H         5.77813077860026    9.29355468371371    2.07518085884772
H         7.39643692467873    9.99782627316427    2.15009342763865
H         6.10016217091865   10.84774266460039    1.30586009281630
H         4.68583564940912   14.05294883017438    2.76117476046949
H         4.96823457036553   12.76912211198595    1.58036824093513
H         6.32126571113053   13.71627956185053    2.19843092203586
H         4.68681601743120   14.57456733574688    4.91477021526219
H         6.27096142820930   14.46349305640063    5.68503685523082
H         4.82966571963710   13.88998126239214    6.52946533347196
H         5.59475419942311   12.09438274082417    7.72673095872391
H         7.22791066757468   11.54666704038492    7.33207246016331
H         5.92824917982069   10.37004598112870    7.56787450318362
H         0.56962903544267    8.16031174412272    7.63477083227673
H         1.44881031557524    9.04532238958451    8.88146395832352
H         1.04745614161921    7.34013510229136    9.12735309075549
H         1.76192212230953    6.39719446869120    6.25148350078583
H         2.23113129314168    5.55513725732257    7.73552241114019
H         3.46115919238950    6.03965598672728    6.55903519298136
H         3.90254363236620    8.53659133668517    9.30523184657497
H         4.72025993286970    7.29567536610950    8.35354213584955
H         3.50903433642882    6.83004084473462    9.55463413793148
H         1.38348915117978   11.13230248737473    5.40902939669024
H         2.52831369532766   12.14971866646261    2.71466842813820
H         1.88625394559942    9.32958978235333    3.77013080715974
H         3.19748982261279   10.47729481801710    1.26160873788697
H         2.89499267475711    7.84826803246807   -0.70540694490144
H         4.56922958140421    7.86095501248955   -0.16928111019166
H         3.73210975133101    9.38017976117320   -0.47654308231983
H         3.61093033975212    7.82353052186987    3.99827384334910
H         4.84569912970994    7.01419529495012    3.03666711992600
H         3.59435622796657    6.06872191226762    3.83689500498069
H         1.13053639769806    7.63683404181043    3.17762061077474
H         1.26007651050533    5.92422602059669    2.80579451631258
H         0.81508754091023    7.07058587691035    1.53941724807240
H         3.13300207828892    4.96768154549054    1.73379082083244
H         4.33753480396328    5.91111354621744    0.87386393784536
H         2.67495894838884    5.83609592078120    0.27691918628636
H         1.68369914499494   12.62743848104846    7.29864996941165
H         1.57770034987351   14.93414787495717    8.15642872241879
H         1.75602929471788   16.84222532483241    6.59678754365758
H         2.02001149251431   16.42081323407250    4.18038808622931
H         2.11583341057938   14.13931460766876    3.32480986053950

