48
CSD_code = MECJOU | q = 0 | S = 0 | Stoichiometry = C22H22Cl2SiZr | MND = 12
Zr       13.54732224008318    3.35985934855824    9.29170997100069
Cl       14.74737751212329    1.37394278135696    9.05840740061834
Cl       15.43192526755047    4.51509589090344   10.08880244529472
Si       11.04959461438939    5.41681032418536    9.21092390834285
C        11.55194925089287    4.10010631377935   10.48012445085605
C        12.65710867599625    4.26159116164020   11.37120466895474
H        12.99646455858170    5.21293618094786   11.76944868681522
C        13.19788270631035    3.01225736000776   11.73139582220164
C        12.41019095618923    2.00726940241380   11.08433251051649
C        11.38675748731006    2.68028901262502   10.31172748928308
C        12.45969393712983    0.59986897898881   11.11987729226744
H        13.21737544787783    0.09778147646844   11.70622773026164
C        11.51778180777164   -0.11457396945556   10.42343738316324
H        11.54198146200945   -1.19361136031624   10.43783708192137
C        10.48658354169545    0.53307320360205    9.72207857086464
H         9.73247762167060   -0.06605639351940    9.23402603864790
C        10.40320769320698    1.90299086313388    9.67181949081618
H         9.55593380820087    2.38141918062653    9.20286303039222
C        14.36284789417138    2.75302955164952   12.64104655609123
H        14.83481543926180    3.69106445454637   12.93099665798901
H        15.10750306382874    2.13150738200921   12.13270908848130
H        14.04182591112537    2.22844196613716   13.54334248592800
C        12.22475111896702    4.81536719426772    7.84951023780836
C        13.58468405132192    5.24253818142537    7.75144606220608
H        13.95015572839588    6.21804286134813    8.05765783025862
C        14.37551158013011    4.25865751956463    7.12674922805117
C        13.50738573616393    3.17406719655002    6.78084875204208
C        12.17304676324309    3.52046218449288    7.22386721607464
C        13.73517729036015    1.95986451189982    6.10383967297897
H        14.73005821785980    1.70609352807040    5.76362547475469
C        12.67259739032733    1.12615429251983    5.86178863275258
H        12.82922735058451    0.19115566184325    5.34571584064099
C        11.36633286654496    1.48660857856405    6.23390861473857
H        10.55041384448683    0.82897836740568    5.97387606137568
C        11.10668397261021    2.66485269560511    6.88992694078825
H        10.08882197307140    2.96602155080254    7.08990350551821
C        15.84728207226944    4.32075898749578    6.84035717611160
H        16.03362955253907    4.32586361947590    5.76447434564249
H        16.35239811303979    3.44878505737721    7.26906704133120
H        16.28146614049575    5.22039452953508    7.27488983105521
C        11.64365239542155    7.12279981086927    9.82383672208502
H        12.69525624753273    7.10762962551907   10.09845852553730
H        11.07749615840631    7.44114723331831   10.69212097067135
H        11.51124839349138    7.87719539775856    9.05622426684477
C         9.20156977138568    5.47742684212449    8.75517458924348
H         8.61266661506777    5.77954747706163    9.61439307621061
H         8.81648795698739    4.52435317121096    8.41277989756757
H         9.03239780194185    6.20254081361674    7.96652072701042

