85
CSD_code = MECKAG | q = 1 | S = 0 | Stoichiometry = C32H49NP2Rh(1+) | MND = 6
C        10.02859961235121    7.98482867561443    7.81479367112320
H        10.42477469063260    7.94846003842038    8.83446981039617
H        10.80158005252073    8.38831397993686    7.16137557674346
C         7.78667975781885    8.42689528465445    8.64191352040771
H         7.24552782699158    9.31714623843054    8.97200754521443
H         8.22210691549833    7.94355717813749    9.52163871820094
C         8.63868513841213    9.69305198084851    6.71977457868004
C         7.34048953247215   10.08771944341851    6.38375795480199
H         6.49988617206469    9.70488698895938    6.93668261883857
C         7.10472909701792   11.01911256643741    5.38797477833172
H         6.08832592381659   11.30837063124599    5.16509286465777
C         8.15526396318621   11.58374961654912    4.68893013893213
H         7.97420464221575   12.31166152487192    3.91449539521309
C         9.45009858272780   11.21010533040207    5.01499967336691
H        10.28555921649330   11.65371238110546    4.49487931709827
C         9.69306881273035   10.28654839258771    6.01178069986899
H        10.72109688644363   10.06647068229695    6.25429521317169
C         9.74975556086537    5.19942319801664    8.69398808032832
H         8.97722946870259    5.49686230892286    9.41004487232998
C        11.08295372403219    5.39226187549943    9.43400517698218
H        11.16747892335270    6.41812482615704    9.79785679501628
H        11.05580905225163    4.75263480381067   10.32039347717026
C        12.32167601356795    5.05094799654660    8.61853331752092
H        12.35830482989253    3.97739971311230    8.43528609604340
H        13.20829669195219    5.30288853437570    9.20275469106100
C        12.36687773842935    5.81125049362806    7.29943966322915
H        12.47629646681572    6.87915940437311    7.50177905465992
H        13.25271721779057    5.49837451634461    6.74086337677875
C        11.13739361031269    5.57342187906256    6.41163967472821
H        11.32026642209450    6.09816104493065    5.46603548835772
C        10.90322016325223    4.06817606883532    6.13917490047112
H        10.88144589536933    3.87903102661441    5.06383410373511
H        11.74623604922466    3.49526463736091    6.52573916603754
C         9.61130538780444    3.52855077418801    6.75478751274574
H         8.74418726588293    4.02180176185890    6.28805911617158
H         9.53311600839760    2.46171926724503    6.53650430632962
C         9.52850247018180    3.73394147233354    8.26697727575491
H        10.26660566613866    3.09962360515173    8.75976811676322
H         8.54474208033637    3.39468180223750    8.59883904128884
C         6.24036754141684    5.88587521328506    9.08585321626875
H         7.14258298503823    5.28032626422626    9.20536039988168
C         5.89087128922131    6.43974634755549   10.47064387868745
H         5.72252281439499    5.59236692264533   11.14048254696381
H         6.76488286612252    6.97520898185466   10.85284988191999
C         4.67969878738046    7.36625828462669   10.54938329812553
H         4.70037012397598    7.86887192497769   11.51913071256407
H         3.76054486329148    6.78664822742620   10.52594351719172
C         4.64674391324055    8.43423057803984    9.46055430519907
H         3.66768381517920    8.91999727804866    9.48583574072893
H         5.38082116873843    9.20767123799339    9.69690394835873
C         4.87811161317424    7.93165925474194    8.02946551669529
H         4.78332368370925    8.80498402379199    7.37218329692320
C         3.81697677637575    6.92970250100583    7.55098831574549
H         2.83445501441886    7.37978294222231    7.71671714029396
H         3.92464732420778    6.81553479781546    6.47063328117550
C         3.82330807103775    5.54444318168433    8.20394133712658
H         3.27924708071039    5.57254673544898    9.14529163153602
H         3.26708946307335    4.86352325490896    7.55454001239530
C         5.20925615841139    4.94961390085361    8.44075872082090
H         5.63650669247611    4.61922817233011    7.48530907666074
H         5.09637944854492    4.06107407395631    9.06698613886387
C         8.68087212060794    5.86988202067396    4.01845976573502
H         9.48718089318443    5.22443144286513    4.34391648732016
C         8.86319817668294    7.23087350183783    4.10853830227879
H         9.80774466697816    7.60668518554788    4.50547694171443
C         8.10122574389619    8.24692459627707    3.30207115190797
H         8.47643923387675    8.21900520106699    2.27374175923763
H         8.32326809937180    9.23850238916107    3.69609296805406
C         6.57580631484318    8.03233602036283    3.30737917445587
H         6.09563094385969    9.00713715271801    3.21603634115900
H         6.26573031668574    7.43710883378442    2.44750012486718
C         6.07769764940122    7.36419967533392    4.56663120566516
H         5.44094392799958    7.99845961784181    5.17905822891357
C         5.95615739878850    5.99696298898696    4.72533896094560
H         5.22589250005406    5.62633435832541    5.44330030818090
C         6.35565132008372    4.94808591142624    3.72064974953767
H         5.57252644163623    4.87605374201318    2.95911369352537
H         6.39293509016486    3.98173133754549    4.23147047528704
C         7.71583710416197    5.21845821068271    3.05894945239273
H         7.59815730015730    5.85024664009695    2.17917812689896
H         8.13497369154420    4.26868595005801    2.72306233542402
N         8.87141131653406    8.83708261068884    7.79235266377556
P         9.59347989658307    6.27629037448633    7.17856847671192
P         6.58838192401390    7.20195216688064    7.82766314489746
Rh        7.69307290470939    6.63258402736677    5.87972886843616

