55
CSD_code = MECKEL | q = 0 | S = 0 | Stoichiometry = C18H28N4O2S2Ti | MND = 6
Ti        6.20644410884960    2.52527018612952   13.96207374178262
S         7.59286684934805    0.74019576861811   12.84217294807510
S         4.57953726875134    3.83928044295544   15.37213979753132
O         5.86826764970162    3.33733567926887   12.50710188703106
O         7.49092828688384    3.17835368239076   14.80191685444617
N         5.04709781627281    0.96337936888577   13.23534036590363
N         5.74303251735006   -0.97173044941616   12.04823767505905
N         5.69428236642582    1.54767097143064   15.81720759761960
N         4.48152496926510    2.48628978346667   17.63405758703203
C         5.98399138788180    4.57453426037401   11.90353643681152
H         6.28969663727233    4.42141932291258   10.84901792920371
C         4.62527872380122    5.29014600082576   11.93454272900274
H         3.88183640864280    4.69432068818225   11.40766528124665
H         4.69730477155822    6.26559397450849   11.46090765410868
H         4.31061763005317    5.41048578116865   12.97192044925802
C         7.05282228738997    5.40289863905562   12.62630756284184
H         7.99777607913943    4.85594053525805   12.60527495384107
H         6.73888727418175    5.53855194529625   13.66524814152173
H         7.18197947363619    6.37208617841044   12.14989217016311
C         8.58273106634997    3.34807836652362   15.62216897576404
H         8.60689272522746    2.50822880987629   16.35097176024380
C         9.87178195389940    3.30989585516312   14.78975337991531
H         9.86740528697856    2.41608463149914   14.16477212120652
H        10.74347579905595    3.29541803358747   15.43846106082299
H         9.91975961062010    4.18656834370813   14.14609924327121
C         8.45036610086800    4.66493120624461   16.40070908313225
H         7.48769765140745    4.68862935295247   16.91221671637144
H         8.49632691630453    5.50535945579033   15.71031072939825
H         9.24841794057283    4.75667814331748   17.13258988734360
C         6.00037935906532    0.17285431767895   12.67772193010643
C         4.48343224474737   -1.34270767572434   11.91574128005333
C         3.43913580147578   -0.55794410645321   12.41577476328706
H         2.41046413162163   -0.85200165253846   12.28491401793345
C         3.76988748048310    0.61331456309998   13.08489596719304
C         4.22372978518533   -2.62725804586192   11.20140289315468
H         5.16860702160270   -3.09729581379073   10.94726338774115
H         3.65959209294796   -2.43588294236245   10.29001522212422
H         3.63571514738002   -3.29585252399316   11.82759224241267
C         2.73551218711559    1.52414938377320   13.66245003724334
H         3.00001038267159    2.56277359384848   13.44696105652004
H         2.70308202016404    1.41176532070925   14.74880486974523
H         1.75133127271450    1.29805573914465   13.25949969407905
C         4.93590562313130    2.52210521082925   16.38371806158541
C         4.81099366500021    1.45551093493981   18.38993877442937
C         5.61554664769513    0.42482617238245   17.89609820618990
H         5.89507037619631   -0.40965755975351   18.51837605841554
C         6.04393905131988    0.50834451505037   16.57699408468232
C         4.29433351758447    1.44456010595336   19.79019517393343
H         3.67480421632128    2.32076259927604   19.95351768865703
H         5.12548234413575    1.45150063555708   20.49336356041007
H         3.70982545281131    0.54363626317925   19.96811335353669
C         6.89594619483372   -0.55182966500330   15.95669536847699
H         7.69657906648959   -0.09554505142255   15.36914211517628
H         6.29644834632693   -1.15832121892083   15.27455134998130
H         7.31901901329699   -1.20185805799169   16.71834412298189

