96
CSD_code = MECQUJ | q = 0 | S = 0 | Stoichiometry = C47H41Cl2FeP3S2 | MND = 5
Fe        7.11556793908639    1.76794857915768    5.15735140145298
Cl        9.81454615210813    1.10903367446578    0.64482573011739
Cl       12.28225145730580    2.00771490087983    6.28797206574136
S         7.93930086083707    1.77618839581545    3.12270114821971
S         9.12806594936654    2.14787629136091    5.87307985601749
P         6.29234717212646    2.16161549356324    7.11922301068016
P         5.13134475322092    2.17624150345882    4.37513339182200
P         6.69964985626955   -0.30081215144670    5.43146815629841
C         9.65779658056431    1.66322290903323    3.28335765388896
C        10.49839555394625    1.37972043163771    2.20552057492701
C        11.86454641645521    1.30223436858614    2.38352557410430
H        12.50123062685545    1.08038925940179    1.54228042246829
C        12.41662806000507    1.50453117605861    3.64341448934364
H        13.48366425780890    1.44391491460025    3.78451934354491
C        11.59735842167677    1.77330236382189    4.72123581608401
C        10.21421962812214    1.85059927421822    4.55656168090242
C         4.96750250341035    0.97100220761058    7.58212285709145
H         5.47553948503799    0.11086789172099    8.03261448317813
H         4.31804340423520    1.42535540276931    8.33801715552308
C         4.13720036525638    0.47153456237344    6.39157449087442
C         4.88866905992346   -0.61627179531359    5.59957305030371
H         4.47744734126961   -0.65355495895238    4.58402364257987
H         4.73880563129744   -1.59045637290147    6.07633784511032
C         3.75705221868295    1.65746129301207    5.49534019987184
H         3.50238323628095    2.50370640913222    6.14091884447360
H         2.88589973550201    1.40701382532325    4.87983419408199
C         2.84323455789361   -0.15027589584171    6.93713826672236
H         3.06800720420989   -0.91847038672497    7.67505658621485
H         2.26948396913607   -0.60502979055995    6.13165781154910
H         2.22263365578393    0.60829493032610    7.41121280866335
C         7.22940958506991    2.30154150518616    8.68460631187175
C         7.06765337513120    1.48952099709868    9.80199127203063
H         6.34048471393910    0.69212926565336    9.81505040284976
C         7.85367372065142    1.68965633789567   10.92359474818466
H         7.71866168950583    1.05288876247489   11.78634244913619
C         8.81021060012629    2.68950930619242   10.94348078336875
H         9.42568335665639    2.83292573419960   11.81935816136873
C         8.97523517783280    3.50400636997534    9.83507672768290
H         9.72088436421145    4.28508537659176    9.84114809756564
C         8.18758507432159    3.31390105729782    8.71715684462012
H         8.31625705263828    3.94834251817344    7.85128925560708
C         5.56501420278861    3.83696845276117    7.19968574326991
C         4.54248663815942    4.23751710401015    8.05129288589123
H         4.05879286212997    3.52398082185100    8.70452714865067
C         4.14035765453303    5.56104160975163    8.06972169468243
H         3.33555208478784    5.86640616296393    8.72314788508050
C         4.77198907632456    6.49690180460636    7.26676239066774
H         4.45646206582771    7.52934257252311    7.29305474448999
C         5.81151124332558    6.11045790938319    6.43777154823148
H         6.31208933233604    6.83845138702604    5.81692568799508
C         6.19792509653236    4.78466798156679    6.39970033059299
H         7.00168756271604    4.46062508125688    5.74263774153937
C         4.72725524002939    3.92000478023850    4.00268548476434
C         5.65622852155989    4.55997718470576    3.18473544500131
H         6.53012361586381    4.00937502833032    2.85795169820360
C         5.46944785968430    5.87269450928461    2.79955692419586
H         6.19660877008220    6.35835137875680    2.16533315992204
C         4.34895391177871    6.56439571219701    3.23117426751502
H         4.20019440062150    7.59349326174539    2.93860529441416
C         3.41695888317610    5.93231201917099    4.03578416011014
H         2.53861320101348    6.46706309793706    4.36805679977599
C         3.59741213836182    4.61471139216787    4.41892470765504
H         2.85111326233695    4.14623236899646    5.04364848719845
C         4.52274400113829    1.46375523469821    2.79844754511574
C         3.34270892713672    1.93977336094922    2.22907777853256
H         2.80613802210955    2.75432406358971    2.69684378822266
C         2.86151706727097    1.38096113261695    1.06090967242560
H         1.94766152688607    1.75733804348011    0.62376320004543
C         3.54905838688450    0.34524607176220    0.44656493683549
H         3.17055950969037   -0.08468759768644   -0.46925661681152
C         4.72148805231553   -0.13002907438991    1.00674040562928
H         5.26779498015802   -0.93307090753314    0.53403941285623
C         5.20485517257015    0.42742109249656    2.17739180288911
H         6.12523043942631    0.06564257972728    2.60932816927024
C         7.26206857374859   -1.49626357068974    4.17712788059644
C         8.64177011207380   -1.45919160307571    3.98067348449145
H         9.23575973740265   -0.78005529297301    4.58176640138024
C         9.23778547722811   -2.26379892649495    3.03149434785344
H        10.30517849015499   -2.21425378005320    2.87395142394053
C         8.45699858372146   -3.12598782722493    2.27703924126903
H         8.91563059421574   -3.75248937490947    1.52631624482440
C         7.08917872747398   -3.18376576302490    2.48369343973365
H         6.48345493439725   -3.86189678105626    1.89930033831630
C         6.48531698193967   -2.37087118551852    3.42826461900204
H         5.41401872134618   -2.41557088665575    3.56438565979652
C         7.38337946161887   -1.21351543258368    6.86656083491459
C         8.29101642729944   -0.61026530713406    7.72505384582598
H         8.59386516912113    0.41109381607637    7.54563839780871
C         8.81767872536060   -1.31317074692086    8.79507127142456
H         9.51936617584335   -0.82825530070118    9.45753155299719
C         8.44654343978672   -2.62874509496447    9.00844907723626
H         8.85339687009582   -3.17956953277450    9.84382458174377
C         7.56280871950011   -3.24782997559922    8.13670836027368
H         7.28836888826508   -4.28194218933002    8.28920759839288
C         7.03879023781535   -2.54948249660064    7.06660080397487
H         6.37253647827643   -3.04682430606123    6.37361866319676

