60
CSD_code = MECROE | q = 0 | S = 0 | Stoichiometry = C19H33ClN4P2Pt | MND = 4
C        -0.50446930425910   10.95129107919944   10.67648323957600
H        -1.03907588191468   11.68584618464894   11.31432003779738
C         1.80106374493913   11.37375361734762   11.37339425720095
C         2.20710129685000    9.87674878209570   12.82187420904233
H         2.76613644474049    9.33469670632033   13.55865808719192
C         0.95013653780801    9.61712552706719   12.33760333315817
H         0.27544228569344    8.82098736093627   12.57164114264562
C         3.48743964149638   12.46609280120007    9.32758753503582
H         3.53028774842521   13.20888658705354    8.52110693268670
C         3.48775274798401   11.07112471096328    8.70420612508045
H         4.35613759003883   10.93440370777707    8.06329519732906
H         2.58672257672044   10.94112937701108    8.09547846641193
H         3.50425978778434   10.30806587277725    9.48091406300945
C         4.64310115007787   12.65602716429058   10.30251326732101
H         4.49370259239081   12.02767776737612   11.17907941832097
H         4.73015449957117   13.69216929695965   10.62127367773000
H         5.57737446652179   12.37085772869233    9.82204483857399
C         1.87173024048346   14.25745888627311   11.07398577938846
H         2.69493560701480   14.20567093213160   11.79547837085772
C         2.07045782800920   15.41199461158096   10.09719919905169
H         1.32987600182189   15.35599375039199    9.29926123559004
H         3.05952793232122   15.38027583600157    9.64543709537997
H         1.95713199174920   16.36699525373923   10.60742230431179
C         0.54378657026581   14.38137495090678   11.81619386988484
H         0.49027155985732   15.32668450231789   12.35307286308902
H         0.42986328556581   13.57153114826553   12.53621163733959
H        -0.28449036890031   14.34083251943929   11.10594965160976
C        -1.94917669304683    9.55325971122375    9.24445668620576
C        -2.04981518620276    9.04499753394724   11.35794214720060
H        -1.88010521796566    9.09158885823480   12.41413635328293
C        -2.90883460520034    8.26434092420934   10.63096731920037
H        -3.56982657859621    7.49345197639310   10.97495923995024
C        -1.02883899780191    9.34286943058601    6.54638113527193
H        -1.85606002323847    8.62494260048639    6.48820019248338
C        -0.81169392656869   10.04545450274062    5.21086781981649
H        -0.10004127588615   10.86190927736929    5.33059783357823
H        -1.74254005334640   10.45447222047248    4.82350654709586
H        -0.41504533128868    9.34589786211671    4.47730730363685
C         0.23866327280791    8.63468043078902    7.01875970297652
H         0.56968817051584    7.90350404375377    6.28400527456625
H         0.06214794946249    8.12021292067906    7.96287161391297
H         1.03658999993581    9.36544835668707    7.16227044236311
C        -3.01077869524775   11.43196376114403    7.33634089101204
H        -2.74650225436726   12.02238588826631    6.45017479627501
C        -3.35787439082260   12.39161054863372    8.47447286503017
H        -4.16320427493610   13.06385888459923    8.18551960701703
H        -2.47807015209359   12.99470052926269    8.73101779094769
H        -3.67167296929676   11.83631617423664    9.35803093879984
C        -4.14589971760669   10.46818614292329    7.01572863752179
H        -4.27367135441742    9.75057284392337    7.82450644492050
H        -3.94630700015922    9.91876830272753    6.09889387676403
H        -5.07525355561805   11.02001508729944    6.88583625372096
Cl        0.74165288075395   12.96349122445489    6.93399936252586
N         0.69544025972186   10.57460341409439   11.40739292198181
N         2.72192627256836   10.97258978668793   12.22281467840404
N        -1.41972576713314    9.85628542065218   10.46276685045180
N        -2.84365582824271    8.59393710627728    9.32081326932796
P         1.83488177728801   12.66825170665806   10.12608573830556
P        -1.45771377291352   10.57243444988807    7.85243395961508
Pt        0.09995846947886   11.85710141924836    8.88675567144232

