62
CSD_code = MECRAQ | q = 0 | S = 0 | Stoichiometry = C19H34Br2N4NiP2 | MND = 4
Br       20.00553937004429    4.56749669158847    9.95603751544826
Br       22.55738370717047    6.04234439330536   11.77554768524173
C        21.27569924722677    4.97339881454231    6.46550595893169
H        21.26418993191067    4.04089529655885    5.88787510816677
H        21.35487584004388    4.73386368583667    7.53642990791187
C        23.41197594597415    6.26434896942452    6.87368037450415
C        23.76511305206006    7.02530187949609    4.90831815037230
H        24.27090157848382    7.57425963868243    4.13993713021028
C        22.63517999202294    6.26602678109323    4.82427956490307
H        21.98964454225884    6.03467318570552    4.00198599169431
C        25.15776614463676    6.87593671286668    8.97222242440710
H        25.78689550805585    6.69130691327491    8.09488293403275
C        24.83176772040697    8.36473186592203    9.04382119814091
H        24.18498091121528    8.56623342118299    9.89715682187150
H        24.34819831508122    8.69724571292053    8.12825949998670
H        25.74597297661202    8.94008524750314    9.17391959464381
C        25.87230835322445    6.44255088928137   10.24807621097907
H        26.75063991046304    7.06994133345297   10.39224452411427
H        26.20567944379405    5.40971881106269   10.20337546620692
H        25.22875233008256    6.56010287734536   11.11693056710317
C        24.04006560169393    4.12804461972089    8.52086371842318
H        23.25352109661497    3.69353254400573    7.88718163911628
C        23.98141689520580    3.41429016737873    9.86748544894571
H        24.24128119314851    2.36533116486461    9.73768814227179
H        22.97449248708365    3.45893580062566   10.28069458029256
H        24.66370873110227    3.85211365443078   10.59063568519126
C        25.37162906094181    3.92273156638196    7.80364464016060
H        26.21235426923001    4.20410514298219    8.43035709311324
H        25.41632222060785    4.50179722337430    6.88226064970673
H        25.48167056420267    2.86942738278864    7.55006678652375
C        19.55822397682329    6.70845400046064    6.97403710934287
C        19.18719708510174    5.50007416673910    5.18827277663691
H        19.33268106287201    4.73545244796352    4.45301772624073
C        18.20663349215943    6.43722191188404    5.34656662369276
H        17.34457342231914    6.62347081237364    4.73843856664584
C        21.17546523735936    8.90517096374831    7.70172259009533
H        22.09588203745136    8.52592473160658    7.23450044102176
C        21.57301586331959    9.87422322298556    8.81229979692724
H        22.26672194918951   10.62046832041358    8.42866453952515
H        22.06764248448117    9.34924833988140    9.63009907002289
H        20.70196923688758   10.39334782907428    9.20691276691908
C        20.34116014296285    9.60074844223806    6.63318800827999
H        19.33283281470004    9.80670490457353    6.98544321106498
H        20.26243607915846    8.99501800342841    5.73343955029337
H        20.81412678913518   10.54461355087663    6.36559761654098
C        18.92614126965423    8.09077589690895    9.43149852570902
H        18.74466007485220    9.09337980564858    9.02423857528399
C        17.63867784855692    7.28010041134915    9.33310127302590
H        17.79214929569430    6.25204647285199    9.65374068155760
H        17.25864066927935    7.27869091613983    8.31572489621388
H        16.89068937621330    7.72769049930882    9.98546780810768
C        19.36297133993156    8.19947431224633   10.89558292032749
H        18.60543315187127    8.72578228476194   11.47390147498628
H        20.30443904826666    8.73753769182668   11.01075767284535
H        19.47462704660159    7.20610247245831   11.33475629536097
N        22.40588587974767    5.78165844304069    6.08386615112298
N        24.23255862784297    7.01628205612644    6.17939254670516
N        20.04805398460780    5.67292371676582    6.23255482877786
N        18.45093528085371    7.17852434146383    6.44999508837922
Ni       21.63942416702705    6.21999299697122    9.75419132348962
P        23.57918581962201    5.95036312126937    8.64598562804647
P        20.34923850481763    7.39186052490570    8.44267890413749

