132
CSD_code = MECSIZ | q = 1 | S = 0 | Stoichiometry = C49H78P4Rh(1+) | MND = 4
Rh        2.53143216441548   17.75941555655880    0.12758599897406
P         4.14684365194271   17.35204332001709    1.69408606291660
P         2.05941703275070   19.22763752228551    1.81860462100968
P         3.08348598897426   16.18822735603318   -1.37787247796865
P         0.91097256553427   18.31395019221115   -1.32531253242588
C         5.93807094590847   17.67759449762145    1.62893689148763
C         6.88334031655617   16.82431908386944    2.22622756479087
C         8.20215493389323   17.23990756869121    2.30406601631383
H         8.92028008205967   16.60250675632118    2.79220285511341
C         8.62915135224328   18.44918832376246    1.77565820047693
C         7.70203702276465   19.22868441036932    1.10518515965706
H         8.03246313627833   20.14964881015651    0.64911287850453
C         6.36664445652112   18.86406319691993    1.00881469247406
C         5.45240595656144   19.74726836241173    0.18908923716708
H         4.44768295580361   19.27680367158491    0.12297594502420
C         5.98609071113998   19.87015683459016   -1.24138140236819
H         6.91343618944091   20.43598788915160   -1.26484435445400
H         5.26264830992599   20.38819809478025   -1.86621492830092
H         6.17580258904988   18.88869707845105   -1.66649017664318
C         5.30176636113227   21.14127077293095    0.79996494884947
H         4.91209927858079   21.09521261901193    1.81467207486947
H         4.62596501804093   21.74237801283643    0.19555796035057
H         6.26295113384232   21.64780682549740    0.83677708505600
C        10.06449760919855   18.89098142905482    1.89481108637844
H        10.15983396682280   19.87407868251842    1.42105803069667
C        10.99185826716386   17.91787962411454    1.16318773457098
H        10.95933400441399   16.93170595682621    1.61934749270699
H        12.01632690873354   18.27896435691392    1.20321920197742
H        10.69910491609907   17.82447157046876    0.11950702140416
C        10.47038615085580   19.02859003403583    3.36356431386663
H        10.43541742732248   18.06718398825210    3.86959570043244
H         9.80308721619091   19.71477443714043    3.88076382275844
H        11.48419243314558   19.41417348622288    3.43470991804075
C         6.51303880842870   15.47328370584572    2.79552261461295
H         5.61058669739508   15.11892020992545    2.28263235667776
C         6.21658942832922   15.61106140347296    4.29092419715616
H         7.10543219648926   15.94890176846945    4.81808559107167
H         5.90854557688220   14.65534675992088    4.70842745173758
H         5.42606649853008   16.34073583867507    4.46469110122455
C         7.58571324800602   14.40827721863399    2.55965964926906
H         7.92189322868140   14.42261554947480    1.52521518949946
H         7.17407891059803   13.42464976515346    2.77435063497336
H         8.44438027089271   14.55290988545238    3.20904235467296
C         3.49765461740106   18.65465773165038    2.86698889144148
H         4.22295686934778   19.44914393786364    3.05226073764550
H         3.18293684508470   18.24131001118639    3.82664641202563
C         0.66069078646122   19.27342652810427    2.98498639710692
C         0.04677709569423   20.47674500653997    3.37286444427656
C        -0.85478974187443   20.45655315261767    4.42433621904426
H        -1.29704007494283   21.38445213025047    4.74733676847974
C        -1.20686656282154   19.28238564743999    5.07323151122926
C        -0.67894456540677   18.09352989057014    4.59752320389239
H        -0.99082191277886   17.16706415865039    5.05582982921518
C         0.23808649749382   18.06171715036963    3.55715318736262
C         0.68318817566071   16.71260692136873    3.03996963171407
H         1.36486358391136   16.86116292638953    2.17727836434621
C         1.40623220849285   15.88635190556023    4.10422265510006
H         0.73882094007347   15.65993906795977    4.93167915625846
H         2.26759975172495   16.41411263668465    4.50826204827832
H         1.74509111828601   14.94421614439744    3.67856187788731
C        -0.53107177625606   15.93529284918550    2.52305139523744
H        -0.21053142398118   15.00202617809249    2.06672881169813
H        -1.07193335806093   16.51904317401360    1.78349800516641
H        -1.21375096782997   15.69661829659423    3.33409124725929
C        -2.16686084186162   19.28845560847102    6.23427133363614
H        -2.27023838963801   18.26017772281047    6.59752351491651
C        -1.62822244266172   20.14671833684319    7.38060582180940
H        -0.64038174047209   19.80425391363465    7.68151229842357
H        -2.29227519087530   20.08060939404181    8.23862113259123
H        -1.55586762780056   21.19052383583688    7.08597157665868
C        -3.54736551918753   19.77782271362562    5.79028787381513
H        -3.50331004560072   20.80909156202591    5.44928923504345
H        -4.24677256305664   19.72206025025944    6.62049681007118
H        -3.92644196804045   19.16224171399610    4.97722067814945
C         0.32534675039402   21.79178864671586    2.68137773241216
H         0.73961811705384   21.57800590365181    1.68831242730817
C         1.34860844008396   22.59800610857650    3.48404795192788
H         0.95554839560157   22.82598995582561    4.47162822911841
H         1.57771856650056   23.53314253534103    2.97848304559927
H         2.27210692586165   22.03426024058212    3.61208375881178
C        -0.94509029432841   22.61307810270058    2.45050412328929
H        -1.72979926467467   21.99437427004590    2.02038392288877
H        -0.73243733383298   23.42853964892159    1.76286407594151
H        -1.31346497193069   23.04932820385450    3.37435586127761
C         3.09440681855780   14.38917411626567   -0.90309304090304
H         2.64098472000419   13.82176085462468   -1.72441732545504
C         4.57986975671609   14.04144246946181   -0.80147068045373
H         4.73293070994898   12.96256362857678   -0.76319447105673
H         4.99462206198491   14.48146769141355    0.11087131555507
C         5.25585885506284   14.67097063637817   -2.01375488688253
H         4.92821058110953   14.16713716696310   -2.92501042208421
H         6.34168888868456   14.58448660916387   -1.95782416963022
C         4.83074954199816   16.14175826145514   -2.03480649102842
H         5.41244249065193   16.67538950546816   -1.26772143448902
C         5.01894498524536   16.84658143980582   -3.37061392892607
H         6.07762710245639   16.91185585227332   -3.61535289732504
H         4.60959926263105   17.85523574268258   -3.32834029212496
H         4.51796680989370   16.31185277840062   -4.17390082238807
C         2.29970365653763   14.14354931461802    0.37011168609023
H         2.32476795325187   13.09100613578906    0.64624943971277
H         1.26144034764833   14.43991254031351    0.22284218096565
H         2.71471616305612   14.72883890276714    1.19165053123903
C         1.96789969012100   16.25629744906587   -2.81937640512241
C         0.98994100897823   17.25515501142763   -2.81007533793315
C         0.78602701786675   20.04035544499405   -2.01069496047743
H         0.60062770243396   19.96088652516145   -3.08830174641093
C         2.07152710837956   20.82142964748054   -1.78343674847187
H         1.98522154456589   21.83338685606447   -2.17479679134120
H         2.90183357718894   20.32444740920349   -2.28462142975415
H         2.29390146278813   20.87859949990467   -0.71703706882732
C        -0.44307825329353   20.63513573924745   -1.32147199992822
H        -0.19200189044551   20.89019643413202   -0.28800400858546
H        -0.77900947601771   21.54135010354973   -1.82630115753064
C        -1.51532689965241   19.55198430487489   -1.32305406637904
H        -1.85952834787088   19.36946677750139   -2.34264110766451
H        -2.38126525693166   19.84468490533083   -0.72786905159418
C        -0.86343992300747   18.29257592159919   -0.74667578118701
H        -0.78578797143998   18.41646400934349    0.34442988408917
C        -1.60003993888015   16.99392282236038   -1.04228964573681
H        -2.57005883027790   16.98999901940063   -0.54842188024341
H        -1.02426546930983   16.14146987956395   -0.68324248653102
H        -1.76209049255474   16.86685575346340   -2.11007609412047
C         0.12904248621783   17.38462530428804   -3.89426915521238
H        -0.62282819919681   18.16067714257263   -3.90361144365416
C         0.23082067594336   16.52157840935765   -4.97047086960256
H        -0.44022678940259   16.62611377278735   -5.80941472499756
C         1.18877900089947   15.51934960754673   -4.97101770300358
H         1.26094487149477   14.84321346007837   -5.80926566350755
C         2.05545758690333   15.38716550005070   -3.90114824676650
H         2.79860182617855   14.60261707279243   -3.91084065371653
H         2.40593363084779   20.57003947188011    1.77756082283142
H         4.09368481704521   16.27967655902397    2.57045124759239

