70
CSD_code = MEDBUT | q = 0 | S = 0 | Stoichiometry = C36H28NiP2S3 | MND = 4
Ni        2.79589039187900    1.82442334944409    3.27167161656620
S         0.60144403723216    1.82563790047659    2.89267006709064
S         4.82246175466953    2.23981547560493    4.29569232989803
S         3.59272093855340    2.96641412848817    0.39780934313778
H         3.14340805802545    2.31700697579639    1.56384270817139
P         2.66029384724855    3.89670346972431    3.53230248569743
P         3.09824186049768   -0.33120545626569    3.15341210491322
C         0.96917026070763    4.50036645039360    3.32212467768640
C         0.05432311412752    3.47199261872516    3.06137499085700
C        -1.29277535728056    3.79318773267286    2.90993746249101
H        -2.00378627834095    3.00540444636544    2.71371410629359
C        -1.69614363907004    5.11015402671929    3.00013292392180
H        -2.74180537085234    5.35298684662475    2.87950371335822
C        -0.77785026354377    6.12812591253489    3.22806330083637
H        -1.10852594888601    7.15455733744202    3.27867537559398
C         0.56217593964313    5.82450566465094    3.38552905503810
H         1.29181653795441    6.60645143893436    3.54494042147574
C         3.27577669954659    4.27678355367578    5.18281104123666
C         4.37270877031030    3.44945772355402    5.47186759194090
C         5.05130964021688    3.62422718092419    6.67129812142406
H         5.90858678362401    3.00723583046291    6.89317193048121
C         4.60047014856765    4.57239566830496    7.57248685853841
H         5.12080764867610    4.69770022997632    8.51096281263387
C         3.48201592472432    5.34899784873016    7.30217208859651
H         3.13290302861526    6.06647151364234    8.02942724700867
C         2.81144930835952    5.20523094945522    6.09736357592714
H         1.93547711698155    5.79855020315877    5.87361353031676
C         3.67198664454530    4.91730373732965    2.41936719713471
C         4.02126086919538    4.51347441142478    1.12605387209625
C         4.75666871677959    5.37777310119930    0.31822860729078
H         5.01895893065280    5.05555661717912   -0.67842129074801
C         5.14498312104271    6.61781276690452    0.78093998668834
H         5.71358240640615    7.27380671947171    0.13923453392310
C         4.81677288353078    7.01368529692601    2.06905881739106
H         5.12956297043027    7.97759408833130    2.44088718979632
C         4.08898193392521    6.16452413255760    2.87845376643901
H         3.84333638755421    6.45844197051518    3.88996838171598
C         2.28892905480345   -1.44418289600024    1.96417095470839
C         0.89972669785517   -1.53576388268689    2.01316942803378
H         0.35606884768233   -0.96156394500578    2.75048508623330
C         0.22784388807356   -2.34768946488906    1.12058046357775
H        -0.84905956684729   -2.41723127070926    1.16280263863912
C         0.93418742744232   -3.06749343705455    0.16940873801583
H         0.40823556285272   -3.70100124756125   -0.52965321380365
C         2.31409510781742   -2.96977898204106    0.11163837494866
H         2.86547070308983   -3.52682959508738   -0.63192397310314
C         2.99406745853647   -2.15780334591152    1.00253173365207
H         4.07108894870839   -2.08272176110713    0.95276601797142
C         2.46525335768829   -0.94519509123768    4.74177183924251
C         2.25751209792367   -2.29386397594547    5.01304186117098
H         2.46242666366882   -3.03397992051869    4.25118939531700
C         1.77684593275416   -2.67446834890146    6.25259433919994
H         1.61530214329581   -3.72091058469945    6.46769242537565
C         1.49802505853308   -1.71905048287304    7.21812886604540
H         1.12197493360841   -2.02520234898794    8.18333088704759
C         1.68902261448232   -0.37398486202956    6.94601728482099
H         1.45947907150863    0.37004168629315    7.69469753098516
C         2.16915279103019    0.01072656683029    5.70859727503810
H         2.30882971069739    1.07190245855560    5.47177526267874
C         4.84083462502975   -0.84688455340211    3.09118466127262
C         5.41935724409990   -1.72320190187311    3.99836514998155
H         4.82897016155632   -2.14614117202287    4.79837691226749
C         6.76137026311654   -2.04215610502903    3.88288798912873
H         7.21178972457188   -2.72272634226993    4.59097132005941
C         7.52795526333443   -1.48800618356986    2.87178680229171
H         8.57565663469002   -1.73794764266673    2.79072877323672
C         6.95560059166775   -0.60251667458651    1.97217884940358
H         7.55499260959339   -0.15906872390942    1.19078731973367
C         5.61795731390470   -0.27805206573682    2.08443453627635
H         5.16397724686898    0.42749423457556    1.39824192763873

