73
CSD_code = MEDCUU | q = 0 | S = 0 | Stoichiometry = C37H30NiP2S3 | MND = 5
Ni        4.26013405186985   10.51015976809849    3.59885830763368
S         3.06838539310214    9.12011079768438    2.26507136183666
S         4.47949765961015   11.98391032269806    5.42916039887163
S         5.74568933976009   11.88218867629418    1.80958819138767
P         2.84196046815378   11.94793184831600    3.11863105584495
P         5.59604125605543    8.97694400303200    4.32970444121216
C         1.66706702923757   11.42259297780332    1.85134576459756
C         0.71210114772939   12.21307499841478    1.23081787615872
H         0.64527541434495   13.26655731795319    1.46564114650981
C        -0.14043157222488   11.64143924904758    0.30361672087096
H        -0.89054356687940   12.24502952238574   -0.18509015850276
C        -0.02730489771083   10.28921704968200    0.00112875003960
H        -0.69826205434212    9.84793064019600   -0.72170776201781
C         0.93597273939240    9.50265074834271    0.59870768364065
H         1.03359348434111    8.45671363833657    0.35128258070651
C         1.80811884580313   10.06490346838401    1.53033244661831
C         1.95632070812338   12.47618549826557    4.59723429713565
C         0.62261517861444   12.81378369833830    4.74096271448537
H        -0.04859624239011   12.74445471625864    3.89592910566802
C         0.16717595358460   13.22851994089430    5.98261454339770
H        -0.87101588422280   13.49465999649157    6.11375431650220
C         1.04445381580696   13.30063197076293    7.05639010780394
H         0.68087580552949   13.62995546258438    8.01916193536943
C         2.37326648314586   12.94086429359754    6.92301555375834
H         3.04862992034641   12.98002690822982    7.76409245917853
C         2.83756467787034   12.50016462125346    5.68975006403228
C         3.58636821996291   13.48020582007470    2.48208031878433
C         2.92053963477280   14.69788737062147    2.57118108659545
H         1.95419487466046   14.73955176725891    3.05466401350585
C         3.50598986662045   15.84620978309149    2.07197958687968
H         2.98812603689832   16.79076653032159    2.14751576494619
C         4.75736570097376   15.78592377770620    1.47803772081133
H         5.21144488720195   16.68153622146905    1.08130013496480
C         5.43027571320465   14.58033222109235    1.39152785568445
H         6.40231288291038   14.52893730686611    0.92440919652134
C         4.85254481688168   13.42972785143941    1.90291974953805
C         7.14268993294540   12.30052578234254    2.90462857504897
H         7.67635592923374   13.15473673396915    2.50013491103769
H         7.78831948426583   11.42790659058900    2.92816700963333
H         6.76600338970673   12.51068360903253    3.90215663545036
C         7.28927298132858    9.35262544321880    4.88676836122327
C         7.43894994687300   10.17775265389364    5.99947258221800
H         6.55886313449611   10.54458841902517    6.50889231956092
C         8.70079212974795   10.53018590753956    6.43766379281881
H         8.81039492330350   11.16765368559265    7.30258203523307
C         9.82327160774028   10.06876749675795    5.76774891497916
H        10.80977527897720   10.34334761738291    6.11135881880861
C         9.67865223414547    9.25699502310730    4.65524223155458
H        10.55205409613398    8.89797498438145    4.13002329015124
C         8.41703826441674    8.90125968823363    4.21026269217986
H         8.30853878134797    8.26914806564322    3.33994389468564
C         5.85447134577349    7.53306518158103    3.25373083460621
C         6.11777097430272    7.80167116419324    1.91255494828452
H         6.13166055474216    8.83086184063854    1.57282106708219
C         6.33656026615565    6.76516912832432    1.02604565179278
H         6.53962603870616    6.97718218784718   -0.01345479975595
C         6.28248860596252    5.45410179424929    1.47179826883079
H         6.44705036701414    4.64121055448397    0.77959609683381
C         6.00459323231236    5.18394453111098    2.80136118702672
H         5.95085150519773    4.16069554730579    3.14436382169358
C         5.78901525076577    6.21870884778754    3.69494104452911
H         5.56055741938590    6.00348370407123    4.72891582626117
C         4.83566258649065    8.31195209280533    5.84051483631670
C         5.53564870300923    7.58475386352722    6.79754715934821
H         6.59180397982851    7.39247190910894    6.66411497466110
C         4.87679304938060    7.12365759039314    7.92283295534977
H         5.41804932747408    6.55749022470325    8.66732565603605
C         3.52820328092136    7.39021995927729    8.10195964867714
H         3.02278469485516    7.03160433781330    8.98683105066877
C         2.82991109252184    8.12162825472374    7.15484839437505
H         1.78148124620845    8.33767289906870    7.29976231797314
C         3.48311490450715    8.58041012720107    6.02679821755754
H         2.95038167118737    9.16481177533934    5.27383544664745

