69
CSD_code = MEDCEE | q = -1 | S = 0 | Stoichiometry = C36H27NiP2S3(1-) | MND = 5
Ni        5.77096429266919   18.66165341259327   13.40154700455472
S         6.59884660083748   20.12904002027327   15.18901642544643
S         4.93789081596302   16.44219476680672   14.06562626798497
S         6.98809286163068   18.77068854034085   11.25556251797244
P         7.52626441979292   17.71248613218706   13.89179983788241
P         3.95091686991827   19.62942945474643   12.88667429960740
C         8.83497597763464   18.86608750828248   14.34993939801314
C        10.19262546525366   18.71158781422210   14.14113359453537
H        10.55910013219024   17.84138077932181   13.61142646274885
C        11.06314086116945   19.68016768476224   14.61522254789378
H        12.12825551805459   19.57472031467944   14.46072738718296
C        10.56247604486169   20.78624152511280   15.29087232060744
H        11.24805261146009   21.53728559716725   15.66242703620582
C         9.20583628685093   20.95170213472380   15.48855301880916
H         8.81996177983875   21.81825031102639   16.00523288927031
C         8.31461129996252   19.99514282880633   15.00366857678592
C         7.34080730175811   16.58735297959429   15.28930886826013
C         6.07329173090208   15.98199719453305   15.28879621272602
C         5.79270939624979   15.02624615710882   16.26441534221779
H         4.82670252595588   14.54292612577515   16.26754649556996
C         6.74430626835578   14.72159358396055   17.21777293397831
H         6.51670723457649   13.98481823929970   17.97771360990523
C         7.98353628213973   15.34983462325377   17.22635487928086
H         8.71098414321149   15.10500920963159   17.98817024986084
C         8.28506845573844   16.29031744994703   16.25396146614991
H         9.24387071764879   16.79293859038347   16.24046380358872
C         8.18394900767985   16.71824528634714   12.53856787735686
C         7.91322931199752   17.30894706195195   11.29328511324278
C         8.41602288956065   16.69889521923341   10.14474973648431
H         8.22726350225345   17.15010241373956    9.18162470144850
C         9.13340967473595   15.52379560540250   10.25198025012608
H         9.51309003918327   15.05048514177649    9.35533286734328
C         9.36761717148889   14.93204730016294   11.48708600696676
H         9.92160820626778   14.00534466661865   11.54869989512104
C         8.88959015767628   15.53403170713565   12.64027778423684
H         9.05913515429910   15.09118904419046   13.61356612143060
C         4.09399449700348   21.11387814199728   11.83956293528959
C         5.22704803432509   21.89757256860612   12.03171242316993
H         5.96022597928923   21.58636571671435   12.76684235992462
C         5.41562942065484   23.04290013958929   11.28217462584039
H         6.29927017425297   23.64708477864615   11.43071703305819
C         4.47575584021482   23.40878645180590   10.33209326124963
H         4.62305368808292   24.30152380284525    9.73929479097393
C         3.35030911104321   22.62607846141634   10.13168122490575
H         2.62124207467276   22.90939007164463    9.38397911799610
C         3.15657320782694   21.47916228994518   10.88083939325621
H         2.28208962794597   20.86318055583542   10.71789780264520
C         2.94187979452265   20.22956700733472   14.28032756882123
C         2.18879354840144   21.39673663534013   14.25415530444664
H         2.18252696516861   22.01701425561988   13.36806603271119
C         1.45340428793589   21.76538846168294   15.36688039704819
H         0.86809678348804   22.67523297439119   15.34675922548544
C         1.46752226834926   20.97734546376238   16.50609079648558
H         0.89271251277563   21.27368391782617   17.37319259035534
C         2.22535868671979   19.81761907422112   16.53825923997081
H         2.24628134931639   19.20848202559939   17.43074168050165
C         2.96335184457744   19.44692382340097   15.43079548353325
H         3.57525271305604   18.55226551726562   15.44410228670502
C         2.75480850264674   18.62726404530450   11.94592120715320
C         1.39380727767798   18.57167975013203   12.21696601855888
H         0.97941270614976   19.15264464070756   13.02978867844724
C         0.57195393353248   17.76552365900197   11.44860134605995
H        -0.48796878430361   17.72156158750559   11.66159637032220
C         1.10139032791318   17.01237050455330   10.41415353547755
H         0.45385712618766   16.38115580455316    9.82059301309824
C         2.46092023903214   17.05845241030476   10.14789749979908
H         2.87673962143723   16.46106888240917    9.34885944919575
C         3.28566543647755   17.85937429238425   10.91315320761503
H         4.35343019377955   17.89284586267985   10.73120029907856

