82
CSD_code = MEDFOT | q = 0 | S = 0 | Stoichiometry = C42H34IrNO2P2 | MND = 4
Ir        0.50443189635859    5.73276997121584    5.24457667534257
P         0.44011897648142    8.04077115669821    5.04817315212316
O        -0.97443223075618    5.73268507749655    7.85990493394270
C         3.50839704309720    5.73246706771911    2.00236639474837
O        -0.42244318133744    5.73292736366381    2.85089498505332
C         2.74253922335646   10.70050134095032    8.01083927283451
C        -0.42287119702964    5.73276655551321    6.83492496839792
N         1.69970473548856    5.73265635553726    3.54226968956964
C         2.60298660743319    5.73261579532393    0.93428723429397
C         1.94111026031864    9.41406774943295    0.93164036959528
C         2.32049557119788   11.23761183675555    6.80460867087468
C         0.57905633846398    9.29209709794727    1.14629925360585
C        -1.62417167700545    9.80023016583423    5.91334362634377
C        -3.92888728509813    9.44414771740056    5.33602827228900
C         1.26221960466751    5.73279035742066    1.18232492005887
C         1.63426155633729   10.45238887077269    5.89647853707351
C         2.82847001590464    9.17622046720142    1.96904361240062
C         2.48010996719727    9.37332533699181    8.30839194030256
C        -3.57728389981897    8.30920458138474    4.62219683786045
C         0.79044354943275    5.73283992964233    2.52484420044883
C         1.36742403304836    9.11815712063225    6.19136982550304
C        -1.26673607773665    8.66879700201746    5.19107582817502
C         0.98295886025992    8.68927412054068    3.43455654644667
C        -2.95293037215480   10.18360264216091    5.98189790756941
C        -2.25393231297750    7.91744211305839    4.55487338006080
C         3.00342877888014    5.73247929690517    3.27786336468991
C         2.35304606537670    8.81086825990929    3.21292090580954
C         0.09759054559136    8.92705765957908    2.39118518731181
C         1.79684559132216    8.58410598949611    7.40027972309461
H         4.57306027063806    5.73232127870935    1.83260732193285
H         3.27826103755429   11.31787258403675    8.71682471762183
H         2.97192610126759    5.73258938047696   -0.08244636998490
H         2.31295699688366    9.68968431219638   -0.04426955832467
H         2.52592485122903   12.27265294079103    6.57250559856715
H        -0.11367538960917    9.47368614173847    0.33744463110783
H        -0.87188668894160   10.37930681501885    6.42909594549934
H        -4.96369765095059    9.74863404111339    5.39486384263173
H         0.52905542418241    5.73288677022516    0.39083676488393
H         1.30591597973848   10.87057605033964    4.95424669952310
H         3.89242673837885    9.26474834914283    1.80390625003827
H         2.81048204380315    8.95414666417384    9.24730749601083
H        -4.33821327311896    7.72681653439634    4.12353166049513
H        -3.22651681131536   11.06339974370334    6.54633835709436
H        -1.96656125615769    7.03079017466264    4.00715240841072
H         3.66268048979950    5.73240019412299    4.14001652039148
H         3.04228146564654    8.61351213955892    4.02415821327942
H        -0.96502327438188    8.81831472277622    2.55043827179058
H         1.58747180779238    7.54246402637420    7.61071803741673
P         0.44016931015265    3.42460827258711    5.04815886622415
C         2.74215471165389    0.76512839668688    8.01137948751804
C         1.94139701810777    2.05108500005390    0.93177643540073
C         2.32031986098133    0.22790862164451    6.80512628854448
C         0.57934697307388    2.17335568666927    1.14629322351679
C        -1.62420385023514    1.66479813079886    5.91249720940878
C        -3.92886276789194    2.02110274097514    5.33508301292476
C         1.63423390112245    1.01304319661122    5.89680511590090
C         2.82870438424164    2.28876831091730    1.96926067750517
C         2.47967725390110    2.09233213055817    8.30876524103867
C        -3.57720094320541    3.15636895927983    4.62179714310027
C         1.36732215790848    2.34729405196571    6.19154032888884
C        -1.26671010560316    2.79656086190240    5.19077748848239
C         0.98315179601989    2.77607733183659    3.43459724049605
C        -2.95296453126457    1.28137315996907    5.98072794259965
C        -2.25384682619600    3.54817384628545    4.55478756660983
C         2.35323671304655    2.65421825628835    3.21309440349505
C         0.09783742130146    2.53850909256834    2.39112544620092
C         1.79655181061239    2.88145756031633    7.40047142017913
H         3.27775106072860    0.14782146443882    8.71751606905500
H         2.31327195640027    1.77542280313951   -0.04410917861910
H         2.52578800108084   -0.80715398402778    6.57315692989324
H        -0.11333875747481    1.99193801963617    0.33736311908706
H        -0.87196567639223    1.08550031804530    6.42806968836497
H        -4.96367380872332    1.71657213562100    5.39366790358405
H         1.30607098934731    0.59477205206928    4.95454678631730
H         3.89265930438157    2.20003327836932    1.80422235422059
H         2.80990358055191    2.51160722506566    9.24768854312946
H        -4.33808358839914    3.73898033693501    4.12332226802438
H        -3.22660016442074    0.40131019863738    6.54473051707119
H        -1.96642839759027    4.43506058476666    4.00746806145534
H         3.04242882206379    2.85141512809871    4.02440807756161
H        -0.96477061606790    2.64746198321676    2.55028045488599
H         1.58715315804530    3.92312298533939    7.61076684370970

