119
CSD_code = MEDFEH | q = 1 | S = 0 | Stoichiometry = C60H44AuN3O6P5(1+) | MND = 2
Au        6.12504607348667   13.23690956090709    5.81379290504009
P         7.03599586086909   10.45868994015597    4.72983107892920
P         9.05815395830585    9.49348339881311    3.15396944031234
P         8.58130770828143   12.15835267465985    3.23791301412137
P         8.19295028784709   13.42727503341739    6.81293399542706
P         3.99677813770183   12.59714444613965    5.22908425687368
N         7.15699399177295   11.84093492176869    3.91070057544237
N         7.75242669535881    9.19750359995428    4.05785248476016
N         9.65900266613321   10.98940343188011    3.11392406610970
O         7.48527348194342   10.63018103670051    6.26708705548882
O         5.50085194791636   10.18754700381817    4.98832588267499
O        10.16318457092287    8.48992109258520    3.67001700479593
O         8.78116190542063    9.07597956189252    1.64001750000931
O         9.19298425225119   13.37804670691454    4.08264937971556
O         8.29566338447017   12.79412789739892    1.80726570923243
C         8.86077352993069   10.78552002100337    6.40357702712421
C         9.69489197627983    9.68173928931886    6.35751474305200
H         9.26032316890252    8.70001495095015    6.25471870356218
C        11.06588099672526    9.85768197166662    6.45210236065110
H        11.71232962779028    8.99433563083575    6.42631173541233
C        11.59723553170294   11.13165590516450    6.56490263962083
H        12.66708850364868   11.27054618994325    6.61249002783207
C        10.76106538694893   12.23172838884254    6.63947153220649
H        11.17487810855916   13.22385785561797    6.74393682403855
C         9.38088840611463   12.07070661945446    6.57163325970851
C         9.10621060328968   14.98584447063131    6.68214513153239
C         8.71419038716617   15.89130127099260    5.70235459289932
H         7.88294383899477   15.63990091716794    5.05502039472074
C         9.37939266242100   17.09608586409887    5.56727021435701
H         9.07954000481332   17.79629195103470    4.80264336163049
C        10.42891653304358   17.40444438782018    6.41644926914946
H        10.95277122781787   18.34153579142359    6.30718170913755
C        10.79320260548675   16.52310220317531    7.42285220918029
H        11.59202091970575   16.77963399981747    8.10230245261718
C        10.12945104047532   15.31897337066312    7.56709548215255
H        10.38655272577252   14.64615203917447    8.37424265182807
C         7.91721391333054   13.32777014332866    8.61170726489079
C         8.51222049775210   12.39861684957947    9.45507001686126
H         9.20887817783977   11.67093151485979    9.06359384104064
C         8.20486158268152   12.40390235770276   10.80593049263505
H         8.66836452082120   11.68092673896781   11.46010748712752
C         7.31079777368595   13.32816063252519   11.31765715744893
H         7.07751768011599   13.32699391255071   12.37132148509926
C         6.71247486528109   14.25527631622172   10.47701127097044
H         6.01398256603232   14.97640120385685   10.87393441987959
C         7.01012985865310   14.25085677150016    9.12910625850674
H         6.54631728554345   14.96454215677987    8.45759468297626
C         4.70978141398644   10.35206416232466    3.85468933683609
C         4.72872371557136    9.43808787354067    2.81960536958898
H         5.36286737174068    8.56899762937361    2.90824090326494
C         3.93879709314432    9.66723198473308    1.70197515161696
H         3.94513261707756    8.95805182658294    0.88843258704334
C         3.15043602244497   10.80430185176968    1.62154784457264
H         2.54913698940109   10.98186801688108    0.74305511710735
C         3.12837110516566   11.71576369477615    2.66383057188770
H         2.51391605042760   12.60274818869416    2.60553840260949
C         3.90416883599841   11.48991836988285    3.79626563468920
C         3.23263473138352   11.61281297471143    6.54496860836933
C         2.31689046658261   10.59771203747946    6.28386496948230
H         2.04889691035599   10.35698987339253    5.26364934154505
C         1.76330199532185    9.88983634675331    7.33542564680091
H         1.05416874730034    9.10085632809771    7.13453978711376
C         2.11794493089315   10.18795399500130    8.64143304722578
H         1.68406628969870    9.62993995585813    9.45698876871447
C         3.03360011442798   11.19497820964807    8.90220479176059
H         3.31579734469155   11.42200415365572    9.91920368256877
C         3.59337620541638   11.90520197120033    7.85686148888849
H         4.31968580178614   12.68686511400056    8.04713496202837
C         2.78673103359838   13.89151864695896    4.84462049853267
C         1.41572806945212   13.70209321553576    4.98940196142143
H         1.03618492755718   12.75983400450937    5.35800554040088
C         0.54668986320407   14.72814234445413    4.66572354231315
H        -0.51717538629437   14.58438207524905    4.77741665856046
C         1.03775909135468   15.93879633010044    4.20230840155020
H         0.35411502739915   16.73553978145071    3.95232617632139
C         2.40328711293834   16.13144916052335    4.06700631594607
H         2.78328766130574   17.07819596523769    3.71461733018170
C         3.27912273359345   15.11232887336608    4.39314383786834
H         4.34998954349033   15.24629569698373    4.29984828541927
C        11.24316621418980    8.21211649245847    2.82874563743842
C        12.48689527005775    8.72440716546203    3.15321491306661
H        12.56758638856085    9.38851635278181    3.99916459295029
C        13.59023626341590    8.38344527089282    2.39056219077355
H        14.56021663460355    8.78269262565015    2.64247343412203
C        13.44435342723043    7.53484464597616    1.30514531761177
H        14.30269441510306    7.26688684790468    0.70890574061917
C        12.19731830993234    7.03953260840047    0.97561414389451
H        12.07750392401004    6.40033141130487    0.11429333497853
C        11.07185682480515    7.37588106188275    1.72664320123527
C         9.74095877074864    6.87199869185124    1.35314484593117
C         9.55608679068395    5.54418203524649    0.97187196616900
H        10.40074124321083    4.87277334896146    0.99658625939126
C         8.31222716046132    5.08096785835598    0.58740896634614
H         8.18831447325732    4.04763835018748    0.30305158648444
C         7.22797354562833    5.94274943705610    0.56317110621421
H         6.25677910226263    5.58691853471926    0.25599990452365
C         7.39057126707075    7.26544854278947    0.93585856426209
H         6.56756160571798    7.96248946861392    0.91368116308488
C         8.63554044030245    7.72330372821448    1.33185712410971
C         9.96746350016909   14.35210011213270    3.45292631012535
C        11.30935187130286   14.44607557203879    3.77767475500155
H        11.73869220787424   13.69898979283876    4.42568916162048
C        12.07025998772419   15.48153328105078    3.26477660667814
H        13.11652173388077   15.55265902920901    3.51745841329878
C        11.48941945901693   16.41773116911774    2.42505763004762
H        12.08131100832699   17.22557976214084    2.02385865560279
C        10.15442622131617   16.30884247990087    2.08574266367559
H         9.70597030593598   17.01872912624601    1.40730488525856
C         9.37206571464976   15.27113543218771    2.58697839022515
C         7.95376205060532   15.14105747784125    2.21825261077657
C         7.09224895927272   16.23629405726336    2.21066096415088
H         7.47672632433163   17.20751533976577    2.48377759497026
C         5.75855699679022   16.08291635600857    1.88046865626410
H         5.10383788697179   16.94084281684145    1.88243595538101
C         5.26096499056804   14.83187054695104    1.55043347286101
H         4.21813209880991   14.71008788627449    1.30142107834599
C         6.10321501134361   13.73335411584875    1.53974084460520
H         5.74379780572884   12.74811156325392    1.28605101290754
C         7.44059793367811   13.89465695800412    1.85790673403399

