103
CSD_code = MEDGUY | q = 0 | S = 0 | Stoichiometry = C36H57MoN3OS3Si2 | MND = 4
Mo        7.72330694429635    9.91671446700972   11.17707828170485
S         8.24067683011180   13.19175536283604   11.75528136904558
Si        9.67701755880573   10.58838532812894    8.47231285486156
O         9.04148874718990   10.08621662650832    9.87324031894545
N         7.71790682405312   10.51211776869041   12.83821537349038
C         9.36376404702369    9.26860006455383    7.11835065043681
H         8.30742312023995    9.19916977991354    6.87760240205410
H         9.70801551243738    8.27890459619404    7.40889863480731
H         9.88828086043748    9.53990859664645    6.20800192019773
S         5.57975462341151   11.31997515788363    7.55555988863240
Si        5.81143007941915    7.31415069950983   10.60119711487724
N         6.31388868713746   10.63289989824420   10.41325607338299
C        11.58321991291474   10.79561523644805    8.64303925559948
H        11.89886000779617   11.01538153279547    9.65916309004444
H        11.92787105956111   11.60885035486088    8.01250887016575
H        12.11081546039131    9.90273331743406    8.31979532469341
S         9.86945701595346    8.52343471360758   12.48003124282979
C         8.85693122108902   12.24344038658510    7.97677663919486
H         8.23635214971139   12.11966298364734    7.09576982318515
H         9.57893950505179   13.02362336635434    7.75654492812276
H         8.20887083374993   12.59623226483631    8.77947262315892
N         6.98895325443043    8.10680966314644   11.62959296472126
C         7.49082802291002   11.44968263498272   13.74559300802985
C         7.65405662984964   12.81225697734021   13.39182709731204
C         7.32571842831465   13.81879491980293   14.27746156794887
H         7.41707921502984   14.84678887453131   13.96089988534934
C         6.88077639661480   13.51241625945056   15.55326623736055
H         6.63073749831187   14.30374894740597   16.24309827553387
C         6.75561584707224   12.18284720668542   15.93376517055509
H         6.41365782016555   11.93976020543445   16.92997820914879
C         7.04941286036136   11.16648525538044   15.05298274600062
H         6.93520970646508   10.12764790024492   15.33291255839069
C        10.08209292115625   13.38678442620870   12.07542482112160
C        10.66503557411204   13.88603971332932   10.76036862545936
H        11.73913005411746   14.03484833393423   10.86052930023671
H        10.20519645321925   14.83024631463322   10.47922997241601
H        10.48158479771201   13.16355709525969    9.97092760190531
C        10.31568644477198   14.40577077465723   13.18121122536345
H        11.38525437860523   14.56709353000066   13.30782981046210
H         9.90645830057507   14.05854861460313   14.12688931770824
H         9.85019019096752   15.35437824470843   12.92625708459654
C        10.65980451669465   12.02999262845785   12.44765991450534
H        11.74093768894968   12.10063194020221   12.56758238106235
H        10.43821991482141   11.30061633328153   11.66375240781028
H        10.23548011116275   11.67180641431115   13.38535047771634
C         5.22707309683639   11.39197501512852   10.27399709125132
C         4.73667409617476   11.84115725262809    9.02644440280922
C         3.66319271463219   12.71396524287064    8.97040178481878
H         3.34675554713615   13.10378663730284    8.01525053117475
C         2.99965509295071   13.09754617475306   10.12116028049929
H         2.15809779515879   13.77089859170618   10.05779428238220
C         3.42923677960325   12.62228354907040   11.35408113159638
H         2.91309058247733   12.91762810797061   12.25605878027319
C         4.52276437049570   11.79267194980832   11.43067402441867
H         4.89489263648151   11.42564741866445   12.38094834297561
C         4.26416600385254   10.48400701332701    6.50893856384753
C         5.05561223647945    9.53347044399760    5.61435253578860
H         4.38159644103552    8.99411666033121    4.95068953314227
H         5.60673744360811    8.81367802262677    6.21300743431987
H         5.76659956855996   10.09208839342021    5.00983049519229
C         3.30369372679807    9.71456717555105    7.40137980593266
H         2.61031378753936    9.14169248990905    6.78641714949461
H         2.72765812960969   10.39065119614808    8.03003938970914
H         3.84948279294000    9.03019171524844    8.04620017844262
C         3.53211540204014   11.50468799740571    5.64604861111653
H         2.92661084283873   10.98904053720474    4.90137798428572
H         4.24457857007210   12.14416181325939    5.13033508529004
H         2.87069594339063   12.12755907182481    6.24129103798716
C         7.27905652059517    7.62083004865916   12.88207840778851
C         8.57845785769341    7.72313980426745   13.41419895825512
C         8.88044405633289    7.27035390493647   14.68769327831612
H         9.88461458368770    7.40051494915730   15.06206093126039
C         7.90894311280556    6.67004026164203   15.46710545798003
H         8.14687924380540    6.31697606390656   16.45830067359409
C         6.62483224752145    6.54403063412058   14.95986809422338
H         5.85022377893751    6.08976223268617   15.56040371694911
C         6.31708148254904    7.00769718223165   13.69720634057326
H         5.30600120315662    6.93550488648841   13.32894045674522
C        10.63635503215195    7.09708882239432   11.52649187315747
C        11.86365561499159    7.70880250043276   10.86400274130493
H        12.38037812304917    6.96088529753444   10.26515129829671
H        12.55138749138671    8.08979022243123   11.61541714281830
H        11.56594476429051    8.53137937525599   10.21741111543433
C        11.02460044771542    5.98670929519367   12.48988844481897
H        11.51896411400482    5.18471258712033   11.94411283983191
H        10.14803963064314    5.57579046043993   12.98643712690838
H        11.70870793161973    6.36179360892083   13.24694289995595
C         9.64326434596708    6.61292460236402   10.48241521880537
H        10.11205426030041    5.86986751736848    9.83688530470947
H         9.31484028442157    7.45385224458602    9.86531687945760
H         8.77469286939315    6.15624775111624   10.95527031930360
C         5.86370517157517    5.41365758774793   10.87265200988003
H         6.34701946583385    5.14442206490610   11.80696640831772
H         6.39372130113702    4.91168757240356   10.06913588855958
H         4.85956638168583    5.00472082911604   10.89844768534002
C         6.38376049639219    7.67825868876853    8.81882946925936
H         6.56624562686562    8.74611814603095    8.69456500524009
H         5.62178259078496    7.37628118444385    8.10693568473173
H         7.29341081051554    7.14530855739502    8.55524582174455
C         4.03490622355133    7.97196205424349   10.88528588238710
H         4.02404058170193    9.05909907575136   10.86701128869997
H         3.61995937747556    7.65867284336561   11.83916509956440
H         3.36198134735870    7.61761896208505   10.11005443887503

