76
CSD_code = MEDGIM | q = 0 | S = 0 | Stoichiometry = C29H40ClMoN3SSi | MND = 5
Mo        0.35332810191357    4.98023200844809    3.23035597717918
Cl        0.92332722243172    5.17679238922474    5.43699820937259
S         1.83488752735245    7.40196701833253    3.06784480553914
Si       -2.51110002545496    6.17668879848036    2.27949545422123
N        -0.76277814089965    6.19312029642641    2.09477828388183
C        -0.15774751277376    7.02974861504535    1.18467007171409
C         1.04302833505518    7.69156147418545    1.49759723037437
N        -0.70013453552684    3.58591390060521    3.36050817805531
N         1.73677560625710    4.57817210477343    2.22925622180520
C         1.66872739039498    8.52477106933750    0.58366164899854
H         2.60616690487340    8.98638480866846    0.85482636162874
C         1.10547578033361    8.75106210258942   -0.65817938847395
H         1.59314682369451    9.40335630410530   -1.36543342481100
C        -0.08194164630850    8.11402503752823   -0.98598641390757
H        -0.52610570743272    8.26876746446925   -1.95806606693511
C        -0.69843334164905    7.27047132137501   -0.08611187160907
H        -1.60500272043695    6.75337384101597   -0.35972312717510
C         1.22145188153619    8.82750126342201    4.13099955208765
C        -0.26461185738712    8.64213149495154    4.39137257845009
H        -0.63115085542505    9.43846889564212    5.03881408473995
H        -0.44378580814200    7.68688776596189    4.89077239000092
H        -0.82925405181890    8.67263207207194    3.45976174455512
C         2.02420478370381    8.70403194984664    5.41996115832720
H         1.71742238584952    9.47304779244131    6.12645320166228
H         3.08678121960849    8.81903508513276    5.21835258983131
H         1.86463227322754    7.72858794588316    5.87730111396158
C         1.50375082943221   10.14774630959991    3.43228018181278
H         1.21368086836138   10.97234892114501    4.08144067809288
H         0.94256759692997   10.22810286282791    2.50345162806073
H         2.56375230228898   10.24280640561411    3.20981879759192
C        -3.26810643247153    7.83426546544387    1.68300606323070
H        -3.69924537552293    7.73829933924056    0.69269920842127
H        -2.53791176361278    8.63688868993246    1.63848802828416
H        -4.06444686146519    8.14832567959104    2.34969875342939
C        -2.82810723408569    6.02999324279727    4.16235816956666
H        -3.72401574975614    5.44535938799896    4.34390311266062
H        -2.97144088052887    6.99675856983960    4.63729621475671
H        -1.99969493966523    5.52296247828354    4.66367385280964
C        -3.35492630781595    4.73409947448395    1.35049126723936
H        -3.09903527282631    3.77637551433456    1.79453308934714
H        -3.07810034064682    4.69307742746389    0.30061968539806
H        -4.43427349712162    4.84131795136315    1.40053776012763
C        -1.30738569795370    2.40034270988856    3.23779777298815
C        -1.29709124761891    1.73188243902846    1.98835466078017
C        -1.96472434153746    0.52786270569482    1.86044898379583
H        -1.96201080912623    0.02495837819924    0.90351611394618
C        -2.61886449961754   -0.04787458863312    2.93715968628622
H        -3.13048087288106   -0.99134369980919    2.81994968718633
C        -2.60139456671364    0.58536003097832    4.16861191380503
H        -3.09582495675780    0.12870827616634    5.01469418509719
C        -1.96126414373517    1.79891655565567    4.33777658091597
C        -0.54867168651386    2.33272601277424    0.83913004321690
H        -0.90268684175469    1.93007499708129   -0.10707270734632
H         0.51681126407221    2.11026250055020    0.93361467407454
H        -0.65255185761418    3.42276811202360    0.84191677624508
C        -1.93940047560310    2.48545908718622    5.67100138031444
H        -2.15496774744471    1.78089564791259    6.47092187209229
H        -2.68827346818456    3.27873711451471    5.70156766497378
H        -0.96247698993573    2.93864484041602    5.84999157982801
C         2.65469879870788    3.82667523768112    1.61603897783344
C         3.37738769537803    2.86957818971346    2.36991837665441
C         4.32670854742350    2.08702996650628    1.74185904606159
H         4.87925751483521    1.36111838699150    2.32187551534461
C         4.57502154913037    2.21535101310806    0.38459034864344
H         5.31981942027083    1.59547763202857   -0.09136126672866
C         3.85875421831288    3.13798926774432   -0.35877823559359
H         4.04536048369664    3.23368234179252   -1.41936587564238
C         2.90318649123022    3.94527279589746    0.23030926057431
C         3.08586469473272    2.73495099142348    3.83277025953303
H         3.65771399583919    1.91947532934557    4.26877943969024
H         2.01538596397060    2.54367736048358    3.98630575402233
H         3.34206177706585    3.66243316498340    4.35526463285164
C         2.13091651046415    4.95046811679636   -0.56852086060005
H         2.24281497849394    4.76676641489929   -1.63419102648892
H         2.48557220628570    5.95935242964128   -0.35149691697965
H         1.07197711860354    4.91225970142361   -0.30565535170795

