79
CSD_code = MEDHUB | q = 1 | S = 0 | Stoichiometry = C32H28F10IrN6S2(1+) | MND = 6
Ir       12.66611078183121    7.79865027939359   17.66360830422860
S        12.56743159213253   11.14628527162881   12.98356328830964
S        15.29410479765714    4.34216864932937   13.88667296412818
F        13.11256464117375   12.49104482755943   12.29334263289714
F        13.20397271773272   10.30487600492220   11.70838959947804
F        14.05618209439941   11.04878507287963   13.76852864579227
F        12.01109626411031   12.11110676815153   14.22852003173083
F        11.14650549866524   11.35290828986218   12.16550058549896
F        15.21088845509525    2.97496467026455   13.04678624853677
F        15.45627904528034    5.14607765086327   12.44899383055479
F        13.61827935813632    4.43831296066926   13.73089773596355
F        15.08097459740384    3.41392036283041   15.25901133111656
F        16.93104310136371    4.13531937387942   13.98002572480007
N        11.59210499484546    6.13792391231248   17.13178061240037
N        11.22022226859343    6.09795276420572   15.82280784133663
N        13.86683572159736    9.45389696949115   17.76927239567990
N        14.89487198848753    9.46726354028032   16.87692855290032
N        13.33154432837507    7.24088660112472   19.60550518537216
N        11.04846084244170    8.39317292005516   18.91141655276482
C        12.00868575888529    8.31415961317072   15.82285377135265
C        11.42859253534172    7.26592364024444   15.07986333468685
C        11.12456178877129    7.40821504491419   13.73078222587607
H        10.69115836545113    6.60942177956750   13.15947840656811
C        11.43569332008738    8.59507828148437   13.08016218301309
H        11.25744074271661    8.71691296801163   12.02607196985539
C        11.99235048703267    9.60932278732285   13.81726358881226
C        12.25584141931758    9.50969438117287   15.16221076641051
H        12.67137511998297   10.36362409045164   15.66841160546485
C        10.71897955022284    4.87494645666022   15.51412564374006
C        10.76510530882598    4.12893827796852   16.67461642056396
H        10.44664339579111    3.11440149593905   16.79277305237174
C        11.32141454976575    4.94746583752866   17.65982073641488
C        10.25416434149410    4.41397628061937   14.18788373869447
H         9.42502606215201    5.01334696496670   13.81634767958063
H         9.91869342120297    3.38427852909836   14.27723201419475
H        11.07720690753061    4.44166930453466   13.47488032931926
C        11.59097386715066    4.58099059803162   19.07321372881821
H        12.66262944275777    4.56889744093395   19.26422834675791
H        11.19425231630651    3.58969137460097   19.27172196474168
H        11.12413141309626    5.28800175311841   19.75646588441901
C        14.22087751759263    7.24618588595192   16.49610122205367
C        15.11914632616764    8.28171563568831   16.16719503477712
C        16.10959894757665    8.11162750920660   15.20661633087066
H        16.78795352523112    8.90142559167626   14.94511184920596
C        16.19859876674799    6.90730204234273   14.52064234824822
H        16.92317397985474    6.76283498356172   13.73841954303194
C        15.32497692711613    5.90505943762733   14.85855995923295
C        14.36887676707409    6.03353507593265   15.83712632960549
H        13.73995092750935    5.18777984075192   16.05463187278062
C        15.49234782351979   10.68594422951889   16.86717966118198
C        14.82368555025862   11.45699213239564   17.79662371672005
H        15.03298171910815   12.47562392230892   18.04816996822259
C        13.81281145364200   10.65710570699697   18.33368091260616
C        16.61135568272163   11.11991661064856   16.00292902309227
H        16.85320661301425   12.15208897704772   16.24161874323187
H        16.31218941305931   11.07502154348960   14.95645985754651
H        17.50280430356399   10.51465773173317   16.15697208678154
C        12.81579403161872   11.05222105009833   19.36055345114866
H        11.81450693610993   11.06074326152605   18.93349912922553
H        13.04491018265389   12.05033893645329   19.72211043578915
H        12.82832296963028   10.36329896229375   20.20311110577163
C        14.52367594693697    6.72749890266072   19.88508748044093
H        15.14672629183497    6.48056199924281   19.03698505851901
C        14.96202076254585    6.50358827036746   21.17919707286357
H        15.93703978853989    6.08109507398557   21.35653469927588
C        14.12088144181240    6.83853608098286   22.22953181163878
H        14.42722471650519    6.68948905940633   23.25280455288118
C        12.87505781051195    7.36931532630463   21.94284541918553
H        12.21379911981214    7.64358081781525   22.74758534476535
C        12.49769667368931    7.55455204427254   20.61392286504959
C        11.19036204995514    8.10258972053182   20.21757781785105
C        10.14625285304178    8.30909452887230   21.11758542929126
H        10.25584730586776    8.05301410263630   22.15802133340244
C         8.94992950155809    8.83704543759113   20.66355490258152
H         8.13257726146750    9.00167190500288   21.34765449625407
C         8.82510894377287    9.14838447173812   19.31802762900478
H         7.91463160690607    9.56773496321329   18.92325949309693
C         9.90100624527580    8.90438114768975   18.48133071778618
H         9.84709811298246    9.13267329039466   17.42612183983459

