79
CSD_code = MEDHAF | q = 0 | S = 0 | Stoichiometry = C26H44MoN2O2S2Si2 | MND = 6
Mo        2.22823080657325    3.00148802274237    4.10978038706516
Si        2.92538799936256    2.67115385276937    7.15292067640845
Si        0.36904126860425    2.93486619144566    1.58102534994244
S         3.66587319309005    5.35956829433530    3.44676624409368
S         4.65618909192700    1.96426430981642    3.06130601494705
N         3.50033927445821    3.31783931296972    5.62002992335787
N         2.04046755360410    3.05646681261894    2.11969989059637
O         1.00875307202726    4.05484381014132    4.47024344477470
O         1.89557037875822    1.41741712083155    4.43644695004254
C         3.06286189938280    3.28472045978025    1.24407454150946
C         4.37108052141921    2.84331915445498    1.53722951461192
C         5.44403604377833    3.10304543459907    0.70158237419134
H         6.42736618411297    2.77005556395318    0.99833730908469
C         5.25212449222196    3.78141143493682   -0.48668563541221
H         6.08467383970697    3.98045189698553   -1.14290778645801
C         3.97319014459627    4.20954337395424   -0.81320976698097
H         3.80704821954686    4.74903992777444   -1.73447839018791
C         2.90790392996418    3.97417676753340    0.02855117656626
H         1.92991139613498    4.34687582144329   -0.22843760875931
C         4.41192290939547    0.17207023948833    2.55169333272005
C         3.10456128795783    0.01091028433602    1.79786319236645
H         3.11036818443759    0.58098943674801    0.87003860029109
H         2.27559413089765    0.34944383010810    2.42060429801048
H         2.95163315199869   -1.03997842009592    1.55479104552230
C         4.37575335101884   -0.58866331877857    3.86863853032119
H         3.52688586037837   -0.24182363599747    4.45711346637878
H         5.28987067984647   -0.42261834000932    4.43547168098107
H         4.26533877640286   -1.65558757229808    3.68396429783686
C         5.60580274659108   -0.23032023920408    1.69701463396672
H         5.53618256941398   -1.28660923955777    1.44310394520848
H         6.53543121965444   -0.06308038007857    2.23610432205366
H         5.62886509393967    0.34441709733583    0.77354219733528
C        -0.65239268180370    1.94628444432824    2.85162079110046
H        -0.16608644498195    1.01239115881585    3.12438759870087
H        -1.64050116128523    1.71358667717662    2.46645074829070
H        -0.76675980685825    2.52625580185140    3.76575191022162
C         0.31704550547285    1.94711284166196   -0.06440240624844
H         1.18866160343454    2.11357768291142   -0.68740596630458
H        -0.55620825802123    2.23182062380016   -0.63989307757208
H         0.24735324649316    0.88058420141795    0.12406767258291
C        -0.44880159069804    4.65935833185544    1.38816198051443
H        -0.57895833153872    5.10927440313754    2.36798370138742
H        -1.43173114457834    4.56439996311203    0.93760009717443
H         0.12770882811396    5.35162598669909    0.78207939629314
C         5.00249116102212    4.83979506913614    4.50509466441519
C         6.26321578380041    5.37667016398022    4.30684814526007
H         6.40466545834487    6.09338959172412    3.51174846453552
C         7.31742279131059    4.99294479565858    5.11335014784758
H         8.29974349416893    5.41314746019205    4.96545693370007
C         7.09070164541762    4.05171066515526    6.10747681803591
H         7.90589976233603    3.73443053426202    6.74164739658960
C         5.84250188060432    3.49742087122253    6.29070566482768
H         5.69757677990726    2.74227203600782    7.04580977762526
C         4.74500347136803    3.86410931971181    5.49201661911613
C         2.94826884789245    6.82282100127056    4.38238405464555
C         2.68943704719559    6.44840137359921    5.83021685908396
H         2.22629551842166    7.28862516703324    6.34629474851877
H         3.61546023219439    6.19697971058557    6.34512727964101
H         2.01202209918583    5.59477060283320    5.87507441275727
C         1.64441253888633    7.12476501300317    3.65909294844218
H         0.98451392829717    6.26142668107212    3.73926517331220
H         1.82634981102750    7.33370147198725    2.60659127704970
H         1.15511602393228    7.98647464502667    4.10929297438693
C         3.93934538937050    7.97287900310597    4.26868890831991
H         3.52375019659333    8.86337955148392    4.73705396017197
H         4.14896324654536    8.19492883326084    3.22489142174779
H         4.87382434896597    7.72604339781908    4.76814196702311
C         3.49411591344168    3.83458939781650    8.57036538682507
H         4.45107240242351    4.30541428249895    8.37495133142316
H         3.58673666597808    3.27534277624414    9.49431074665995
H         2.76880618859934    4.62380710822490    8.74051735408671
C         3.52594309421172    0.87209828158690    7.44053746616114
H         3.02817730112217    0.20853323194895    6.73958959891498
H         3.27009948730720    0.54250956476759    8.44256638136018
H         4.59639575321663    0.74279410391819    7.31261886279133
C         1.01902652523382    2.65924001763990    7.17853390577186
H         0.60349902784152    3.61838861251396    6.87787253366217
H         0.64059488075134    2.42162223038831    8.16806721625086
H         0.64436226772325    1.91460401078743    6.47837800109061

