42
CSD_code = MEDOFE | q = 0 | S = 0 | Stoichiometry = C17H20FeO4 | MND = 7
Fe       -0.15089576586650    6.49491494285971    5.74492337575030
C         1.01175569008772    5.23222735715714    6.19963213815287
O         1.76548431725190    4.48099887332492    6.62129087887712
C        -1.05934892916305    6.38380565380399    7.25284565379392
O        -1.62345172900681    6.33578691277854    8.24557137682260
C         0.95817809469019    7.79891575294397    6.16526119426725
O         1.63813674599586    8.65980349215737    6.48967014183460
C        -0.12174467136383    6.90747463283452    3.50996970536676
C        -0.58873919293910    5.63140506756084    3.78170883652007
C        -1.65488731913543    5.36095874322652    4.68420204169960
C        -2.97891460385802    6.10017051071099    4.61216760516480
C        -2.90398190350053    7.52762200209350    5.18141318181148
C        -1.46068804896396    8.00287062218337    5.14704791670876
C        -0.93440560659979    8.17519619787487    3.71784897887779
C        -1.94043729771785    8.50348747619508    2.57249336065302
C        -3.42880283299048    8.47681096200436    2.93917322683288
C        -3.83317427079831    8.48071743162885    4.40440600829054
O        -4.25774251913778    8.49939014868892    2.06120225828378
C        -1.68253037305958    9.93943647546128    2.07452903742613
C        -1.75596971750742    7.56546096073945    1.36977512343189
C        -3.74720592193680    9.92135826437562    4.92942241039449
C        -5.29216501414755    8.02755163792707    4.53093241131977
H         0.74888014028266    6.99311882299962    2.86748158239226
H         0.02384916707930    4.79391699872464    3.45093610713306
H        -1.79972021581879    4.29970560192663    4.87852970510406
H        -3.29047800237152    6.13908767713234    3.56358596349862
H        -3.72911947526981    5.52513601558099    5.15577755747209
H        -3.23863050082948    7.50967592922766    6.22424973053381
H        -1.38537248053716    8.94157618959630    5.70040490448186
H        -0.20628105218951    8.99372756464425    3.73076723836368
H        -2.41408985362123   10.20505336007445    1.31452145465792
H        -1.75318330264670   10.66073217334338    2.88490661392259
H        -0.68893151122598   10.00806011600274    1.63566134773634
H        -1.90580676331094    6.52533021330006    1.65028878221959
H        -2.48701653135511    7.82021070966204    0.60600634080096
H        -0.75989388771511    7.67372575511776    0.94808584552531
H        -4.43494801169918   10.55533324838047    4.37383584429568
H        -4.02971135956000    9.94224687472667    5.98019830140683
H        -2.74859937932406   10.33473984189876    4.83343224835082
H        -5.58965108849548    8.01600505934493    5.57683475510022
H        -5.43418172243599    7.03476091119128    4.11391656885548
H        -5.94028329928920    8.71079281859373    3.98819224586851

