60
CSD_code = MEDPAM | q = 0 | S = 0 | Stoichiometry = C28H26P2PtS3 | MND = 4
Pt        1.23310199993998    2.40681199883602    0.14034551778730
S        -1.06055299140125    2.35625107402278    0.54590257080978
S         0.26199032527778    2.03237921716181   -1.94864456297657
S        -2.72975393343273    1.97232832169526   -1.91011020167670
P         1.90347586959078    2.93477186362819    2.27133215002600
P         3.42642620613236    2.47482896494755   -0.53724434757768
C        -1.28843433061134    2.11137487206264   -1.16231242767580
C         0.78736294311283    2.60488100892894    3.66081350985274
C         0.13915179516724    1.37297465918738    3.65464384460736
C        -0.73426254894729    1.04616162637677    4.67345441090201
C        -0.96903807843010    1.95216694786573    5.69615768714207
C        -0.33374287794302    3.18321449774491    5.69724674543420
C         0.54445139736007    3.51612829010982    4.68088940355135
C         2.22764430649375    4.72097975261078    2.28074906147533
C         3.10889052254548    5.37151890357497    3.13837053494352
C         3.31643788700453    6.73334419551085    3.00711998238469
C         2.64759592836065    7.45242940520943    2.02979046912362
C         1.75720416013844    6.81247245805887    1.18297307650963
C         1.55093420714668    5.45221830537637    1.30724718808469
C         3.47687163177009    2.17506836525520    2.87440779974717
C         4.69297522093818    2.52686814404741    2.01859593071341
C         4.70082754075016    1.85250715481592    0.64659669594526
C         3.89212236608936    4.18176854086892   -0.93881817499688
C         2.91612123490239    4.89633746604386   -1.63281010561036
C         3.12471904306087    6.21912650989693   -1.96903709426528
C         4.30506120479481    6.84553962139619   -1.60006988467106
C         5.27878446294619    6.14009078248847   -0.91374614582825
C         5.08084922695805    4.80947790931868   -0.58628723653343
C         3.84691630308388    1.51527696987218   -2.01618811403279
C         3.20721467434625    0.28940854530921   -2.17073718061997
C         3.48028356615224   -0.49875000946651   -3.27187043757646
C         4.38848246646170   -0.06102133301322   -4.22315115787139
C         5.02224658582387    1.16197004343192   -4.07334672135718
C         4.75513978450609    1.95478935928012   -2.97139266804756
H         0.31241811286831    0.69166886644975    2.83029401546908
H        -1.24239709077390    0.09363158620232    4.66596659701438
H        -1.65909835355704    1.70288318119409    6.48843223990457
H        -0.52896395111214    3.89100018759614    6.48961424573746
H         1.02909415470681    4.48238090121902    4.67194718987293
H         3.63293738202286    4.82119685048472    3.90706654143936
H         4.00463085134162    7.23619517001061    3.67093774679503
H         2.81983162873864    8.51373636183036    1.93114392145264
H         1.23039391027240    7.37290012518500    0.42591133654559
H         0.85628542763541    4.93068897074592    0.64963423576293
H         3.63522529226764    2.50199165580599    3.90732180392461
H         3.31975169240929    1.09158109573793    2.89230158527195
H         4.73834720774220    3.61204449230025    1.89386076070207
H         5.59371473046750    2.21452158688345    2.55691790071993
H         4.51694729344961    0.77777608222518    0.75372570150925
H         5.67996659106492    1.97110726885546    0.17011754855250
H         1.99479873890382    4.39189973431727   -1.90509008385394
H         2.36825482478503    6.76470522171311   -2.51276382267067
H         4.46826241478415    7.88325699001898   -1.85003790696018
H         6.20117652392202    6.62736574497573   -0.63279936457032
H         5.85748843699854    4.26953236337309   -0.06476775319798
H         2.47941376396128   -0.02049483509992   -1.42929869845445
H         2.97857941932403   -1.44641422209597   -3.39716972580164
H         4.59604319689616   -0.67078562107354   -5.08985580218567
H         5.72273511587373    1.50248948347119   -4.82176833011602
H         5.23816458497942    2.91544632528068   -2.85631200051593

