57
CSD_code = MEDTIY | q = 0 | S = 0 | Stoichiometry = C22H28Br2O2S2Ti | MND = 6
Ti       -0.57708404643349    2.63933332241234    3.61282776880792
S         0.48004582279517    5.69281766925123    3.67516738408749
O        -0.31525205632410    3.31803769437156    5.12000096594998
Br        1.29829829880454    1.18867847573387    3.32494692986163
C         0.21062432415533    4.19645859331676    5.95468583460898
C         0.66739820838748    5.41149838876558    5.42079151750798
C         1.26517545341942    6.37315261813637    6.21393726085643
H         1.60732878813283    7.29211705462983    5.76397834725838
C         1.41897757148031    6.13484476952443    7.56876320909730
C         0.94305897561756    4.93896564943797    8.10073154100009
H         1.06422122340202    4.78577093948393    9.16038831339464
C         0.33205293071500    3.95670299276875    7.33798852144305
C         2.05084488687269    7.16109670615172    8.45791705855293
H         2.73713951978521    7.78957479027141    7.89675344958019
H         1.28223099378370    7.80159624049317    8.89070716549761
H         2.59071469628250    6.68649200345775    9.27331709892024
C        -0.21388154733377    2.66261398713925    7.92839725838020
C        -1.73405384416287    2.62379807704318    7.70446020950389
H        -1.98787747522521    2.68790524637701    6.64561816106191
H        -2.14212667080178    1.69278271350476    8.09059724785464
H        -2.21192440668736    3.45467028185893    8.22062223397467
C         0.44986115006687    1.45073616535345    7.25274799742127
H         1.53352301445428    1.55483553748460    7.26089681714816
H         0.11824420825239    1.32873389035494    6.21921285531099
H         0.18718293590160    0.54181048513754    7.78895910407138
C         0.04800315383670    2.56040880882775    9.43415052644116
H        -0.42753565478310    3.37550512356587    9.97444093112169
H        -0.36952143923549    1.62739933459729    9.80550600427258
H         1.11454397805751    2.56011110644133    9.64682583454641
S        -1.63486326866561    5.69239465471797    3.55070061658011
O        -0.84016731962740    3.31743886856297    2.10567332849518
C        -1.36539222217651    4.19628109595594    1.27105219862111
C        -1.82227177356963    5.41124146661985    1.80505359758957
C        -2.41996231804125    6.37299473870566    1.01196090670600
H        -2.76212201400243    7.29194647499438    1.46194690480697
C        -2.57369156616149    6.13480526863240   -0.34288697529763
C        -2.09783702571387    4.93893806878451   -0.87490965979776
H        -2.21902171344907    4.78577603250146   -1.93456512927479
C        -1.48685640845866    3.95662758747493   -0.11223696447387
C        -0.94093266540646    2.66256055607937   -0.70266907178119
C         0.57922059763476    2.62367127542816   -0.47864439504857
H         0.83300940005023    2.68773607368404    0.58020798600690
H         0.98728266547970    1.69265736661968   -0.86479834806851
H         1.05712033170427    3.45455070450127   -0.99476264360824
C        -1.60473506310454    1.45074981587159   -0.02695314632833
H        -2.68839607823147    1.55482481646224   -0.03522064720039
H        -1.27318687853103    1.32883520508981    1.00664023529288
H        -1.34202056755483    0.54180794385574   -0.56310419360571
C        -1.20280442697573    2.56045517288316   -2.20842783712312
H        -0.72721465681979    3.37555001676201   -2.74867846357901
H        -0.78529415177208    1.62743494086729   -2.57977533901689
H        -2.26934597546087    2.56018950871763   -2.42112221978011
C        -3.20559869621927    7.16107671441615   -1.23200158255246
H        -3.89190750524360    7.78951371426725   -0.67081972640953
H        -2.43701065482761    7.80161848693161   -1.66476968277055
H        -3.74544679210547    6.68650315777201   -2.04743331286062
Br       -2.45256624596488    1.18887160695269    3.90050601694976

