107
CSD_code = MEFBOR | q = 0 | S = 0 | Stoichiometry = C27H65NO10P3Re | MND = 6
C         5.20419232475360    5.14873373371490   10.39097722653045
H         5.12371724612529    4.28657996624210   11.06527612908974
C         6.66332830355071    5.57460360883657   10.29062601911500
H         6.75847973258368    6.45484228685057    9.65727256968403
H         7.24942405219534    4.76480508992536    9.86247296058553
H         7.06167656056910    5.80188876862452   11.27618173860171
C         4.64144357661529    4.78130451252521    9.02330874588704
H         3.58119557952833    4.56608262933976    9.11882538919313
H         5.15338776440226    3.90772351388396    8.62984369449974
H         4.76795165757669    5.61333477084918    8.33320973590780
C         1.60998859964541    6.81392537617807   12.06198130114083
H         1.76927221362914    5.73358369118383   12.16504866188816
C         0.67332466553005    7.29566995354956   13.16094743256155
H         1.11910977751330    7.07766162515686   14.12849260303838
H        -0.28819697813274    6.79317735048216   13.08504759299616
H         0.52423608426976    8.36999972810795   13.07683772071922
C         1.07384587856161    7.11190518000938   10.66745499524437
H         0.92727613898595    8.18327181898317   10.54769450371279
H         0.12564411342868    6.60311848815517   10.51265583882702
H         1.79010816053201    6.77424624894469    9.92266115482368
C         5.54001934813713    8.76220985508427   11.60070316874391
H         5.28580910609979    8.30544392961264   10.63645388784453
C         7.03256257149163    9.07025424135284   11.64814888661455
H         7.28421450226761    9.53542885255544   12.59774523714846
H         7.29559861236367    9.74818963037554   10.83972811234688
H         7.61544891215063    8.15841012417553   11.54831192531460
C         4.70925598382748   10.02491810707029   11.77923404665144
H         3.65817812582985    9.76184642978921   11.84305030165280
H         4.86565817555098   10.69035175001764   10.93286238018205
H         4.99974151976544   10.53726320579706   12.69187508822943
C         5.81055230069798    1.59463923690524   13.06018132727244
H         5.92891161802084    2.16593214263861   13.99206614838381
C         7.08028161859094    1.69331920752748   12.22461443327076
H         6.92311322281908    1.22549617257441   11.25541179493190
H         7.89767359681402    1.19337681265236   12.73639102047817
H         7.34966235846510    2.73511055900147   12.07505266416504
C         5.45805751623768    0.14935083171749   13.38745358303037
H         4.51352570311822    0.11625498830951   13.92191838233880
H         6.23601112005971   -0.29167404506555   14.00455433426632
H         5.36151849098614   -0.42582857957566   12.46929739371856
C         2.04904371209478    2.28071489938269   14.96619914376535
H         2.54482100333542    3.03581716621562   15.58730123435649
C         1.97013825587279    0.95624836901966   15.71564013386774
H         1.52919342479711    0.19157107049319   15.07982966264200
H         1.36037871429316    1.07296767861793   16.60683489676630
H         2.96612329311280    0.63694924620828   16.00994370268416
C         0.67373713458852    2.79196220396072   14.55804220584983
H         0.78876930253827    3.73339107974253   14.02534540830073
H         0.06552519605267    2.96298389225371   15.44233605054924
H         0.17183611965367    2.07235994335438   13.91396734736833
C         1.91204248686866    2.49426342190053   11.11964813086276
H         1.64045186990472    1.76250061277240   11.88883579608410
C         2.63045766495585    1.76835119104523    9.98957748997813
H         2.84114161610576    2.44853470747542    9.16926675557670
H         2.00520915921047    0.95713650533967    9.62375154655514
H         3.56731998891283    1.36156885943008   10.35637618612296
C         0.66363550810399    3.21421816418542   10.62458153617735
H         0.15014732365282    3.69515094454033   11.45324271797440
H        -0.01099422472865    2.50389753438705   10.15348134740470
H         0.93953341563193    3.97705031577064    9.90069523725091
C         7.18828833573278    7.55649441352902   15.39568673498269
H         6.98390521684405    7.30835394102949   14.34804325291280
C         7.98084125243687    6.43178039309249   16.04956395191887
H         8.21901613547672    6.68897326468830   17.07951871291609
H         8.90050605887330    6.25154432898277   15.49974232193822
H         7.38458519186033    5.52046924109026   16.04602586964416
C         7.92301927432079    8.88899165763584   15.47182391661473
H         7.31269712521108    9.67566231720152   15.03488159331473
H         8.86550673256975    8.82641139991660   14.93452048594886
H         8.12058823015914    9.14349161143359   16.51077548957689
C         4.42202151011123    5.83959297479638   18.02757027395933
H         5.12999478138629    5.18516320584654   17.50401712250833
C         3.22533732688670    5.01609556560952   18.48458096726434
H         2.50765740339758    5.65247716575334   18.99668160248610
H         3.54798662625328    4.22453890973982   19.15490141385897
H         2.74880101078207    4.57646912224700   17.61242639558225
C         5.12403145654090    6.53905569660750   19.18475032915465
H         5.94098967201754    7.14523604749746   18.80289601303454
H         5.51838075990130    5.80370060186228   19.88077778057793
H         4.42368893893083    7.18662555505669   19.70729951685546
C         3.34246719802695    9.28023711693665   15.99327979089204
H         4.01068312395735    9.24413535451975   16.86090895806450
C         1.89811060519824    9.15277321570069   16.45879219587373
H         1.22744986473225    9.21013215071094   15.60524401700864
H         1.65876148531055    9.95151895079082   17.15684626951712
H         1.76017971783195    8.19356017268977   16.94950054547056
C         3.57603314508303   10.57268613162359   15.22572724585331
H         4.62571777401327   10.65906461046691   14.95841369608702
H         3.29692211532085   11.42534199109611   15.84011762641975
H         2.97994496458468   10.57276179015788   14.31715925109073
N         6.15438783327692    4.88291493485185   13.76370521472051
O         7.27769082361972    4.74161569750434   13.39626234276890
O         4.38377198256186    6.19813101409332   10.88677892380914
O         2.86196788504028    7.48524179769162   12.21369406423708
O         5.25700288788694    7.81335031613454   12.63541152669817
O         4.74082808192137    2.17407695607649   12.30322447266762
O         2.85966278813084    2.05490992623429   13.81219639205030
O         2.76172324669172    3.48312175231452   11.72229840431845
O         5.94976395684660    7.71673462495647   16.08280325354700
O         3.94654229256965    6.83148081233720   17.11461150702149
O         3.65293567146047    8.17645177521407   15.12709202279725
P         4.19079282077119    6.62741522434375   12.44215041035029
P         3.69008446299203    3.16818025758068   12.99251888222727
P         4.57161130025231    6.98721375559074   15.64900380863297
Re        4.47745376476090    5.05631904876017   14.22850351333285
H         2.82125958879019    5.21337909483968   14.64220635285062
H         4.66659675865102    4.06853451311704   15.51999890585144

