62
CSD_code = MEFCAB | q = 0 | S = 0 | Stoichiometry = C24H33AuNPSi2 | MND = 2
Au       10.26067638488410   13.84537107854090    9.62695239198206
N         9.62656512529018   11.92166773638239    9.88751461446204
Si       10.36003927818406   11.03165296407017   11.16743951834880
C         9.41710604276364   11.23084561512435   12.82250115913170
H         9.29910477698884   12.27873827081010   13.08168753997521
H         9.93402995044012   10.74421080590820   13.64417070468012
H         8.42401570956247   10.80059661733238   12.75441536683314
C        10.52092930136104    9.16622865760738   10.81091663677402
H        11.09829398162952    8.98990523668493    9.90970410858244
H         9.54578838544344    8.71342193801358   10.67042385236252
H        11.01237853198612    8.64586128243596   11.62774940553613
C        12.12912379389363   11.70249077869953   11.45639718102297
H        12.11999707003499   12.72457467353831   11.82302952420408
H        12.70750620090096   11.68708588026476   10.53880765066722
H        12.65697086661133   11.09872849145616   12.18733452501209
Si        8.31029690461827   11.32117838556627    8.95296348869284
C         6.93424963267834   10.52686242865920   10.01142184375080
H         7.31440190171271    9.66878063960660   10.55490862847199
H         6.10069752085594   10.18955373912185    9.40255835768269
H         6.54846144456578   11.23094286293714   10.74162530713310
C         8.85975164540916   10.04507815589306    7.63896983260625
H         9.21479982578577    9.13302562400177    8.10511401495920
H         9.66954217480291   10.43783370463530    7.03215798101300
H         8.04471657053218    9.78016726431604    6.97171877128377
C         7.51401700208545   12.77718630191219    8.00210353728742
H         8.21732418900565   13.22382462498662    7.30626254346504
H         7.17263635604441   13.55289615450544    8.68000665368450
H         6.65629955217608   12.44131176369956    7.42853868711748
P        10.97822849488223   15.95066587001371    9.43678849558465
C        11.94093602132533   16.52072900440484   10.86553172901266
C        11.60363954689223   15.98562923279929   12.10518209427248
H        10.80734092896461   15.25394718381004   12.16278628035630
C        12.29135536239570   16.37802650244660   13.23830812608437
H        12.03046256870539   15.96024937946863   14.19905524158418
C        13.32102102034377   17.30033717800638   13.13681635175909
H        13.86218849491051   17.60369232867663   14.02055450392211
C        13.66325603950827   17.82952235551539   11.90260565652862
H        14.46910701581661   18.54469528395485   11.82570913150745
C        12.97773095292116   17.44319427360857   10.76482745691069
H        13.24713447118378   17.85017355514096    9.79949785226289
C         9.67244794042003   17.19828623706513    9.25656332963859
C         8.55920968511291   16.82264542046148    8.50886778015168
H         8.51735074022790   15.82430625891191    8.09241937533393
C         7.52265152411898   17.71611902917596    8.31594443295244
H         6.66092445907990   17.42452239853810    7.73447717296915
C         7.58849687380584   18.98203341492436    8.87746148138509
H         6.77698380838753   19.67925045174836    8.73160414611508
C         8.68977624826447   19.35294201562311    9.63220185416532
H         8.73539127453474   20.33766702846571   10.07371327867910
C         9.73400887945460   18.46571999540330    9.82546210959216
H        10.59224364886549   18.75293632102712   10.41716735019202
C        12.09041260456865   16.28427631089896    8.04180604730120
C        13.14262000042172   15.38574527163008    7.87688187554210
H        13.24311560910979   14.56180279997459    8.57243028227957
C        14.03551088682791   15.55037422627865    6.83623059212144
H        14.85340830499385   14.85672439764787    6.71073866379192
C        13.87434421370067   16.60369948309867    5.94827744494889
H        14.56942000992593   16.73098982744541    5.13186701869658
C        12.81986265290878   17.48844929885577    6.10145804186345
H        12.69295925319039   18.30406823211597    5.40476984992031
C        11.92372699401051   17.33293102162803    7.14515692544246
H        11.09931334996479   18.02232673449591    7.26434420041764

