46
CSD_code = MEFHAG | q = 0 | S = 0 | Stoichiometry = C17H26Cl2Mo | MND = 11
Mo        7.79142561033618    6.22914901491477   11.46255853956749
Cl        5.37173609622395    6.58059793065666   11.51838109297332
Cl        6.94183615225508    4.15014850806694   10.48278414162263
C         7.50896871041137    5.44308563139905   13.62215142065669
H         6.58842143378350    5.09066322518044   14.07392910900725
C         8.51061373687163    4.62429632751835   13.05685060503298
H         8.46425888989379    3.54834760249346   12.95845818393989
C         9.61880809868814    5.43210444810712   12.74415964806595
H        10.58623031756621    5.08021486446308   12.41776076230031
C         9.31206464450692    6.75962085337744   13.13824387999185
H        10.02432682266218    7.56991899683859   13.18746721938184
C         8.00478568615857    6.77043439142430   13.68590760800942
H         7.53831892934113    7.58782491724755   14.21569466880386
C         8.15267729671712    8.11816834255086   10.99596624602203
C         7.57619385338668    7.84940754695594    9.74139478304995
C         8.01182307085277    6.63219798749486    9.15669425602480
C         9.20684629818516    6.06430611691135    9.74007261707509
C         8.43425910004764    9.46693592073825   11.54209650310549
H         8.48839576629472    9.44058192421909   12.63209206337022
H         7.62540921820738   10.15059145272790   11.26701244251885
C         6.47325302528023    8.71139157353437    9.17464214845390
H         5.86483903059165    9.08874552096809   10.00053659702324
H         5.82078012220403    8.11174445467883    8.53912268709766
C         7.29828068872180    6.01408047138280    7.97657303449244
H         6.21744042068135    6.01863620410920    8.15091154172340
H         7.60189385997498    4.97231426857033    7.88576755905247
C         9.81250880647101    4.77298899715741    9.23876383140074
H         9.04106468926324    4.02412878706814    9.06739202656142
H        10.46939651935446    4.38358099332846   10.02160281971891
C         9.75819127747201   10.00850620165557   10.98642125364120
H         9.94433748463110   11.01181109559626   11.36196504364951
H         9.73119815486582   10.03991528612504    9.89981746724352
H        10.58523427966864    9.36849617942246   11.28779153491668
C         7.60863489826783    6.73382965496652    6.65922083795240
H         7.29827424171221    6.11341048069236    5.82157849338662
H         8.67497495600738    6.92824453903139    6.56821441213493
H         7.08230003742343    7.68054927795820    6.58874939084472
C         7.03050801738363    9.89062610137087    8.37158807923183
H         6.21929186974966   10.40008200695926    7.85639435019513
H         7.75211854059780    9.55053287573841    7.63264746187468
H         7.52283535458492   10.61000452604739    9.02002654372424
C        10.65177513074829    4.96182884763496    7.97366553708398
H        11.15023431170078    4.03062313065951    7.71509595006877
H        11.41172997872315    5.72562864120697    8.12921310024283
H        10.03143058750990    5.25938380568220    7.13447065447671
H        10.00187398402105    6.79862007516700    9.90385185328753

