33
CSD_code = MEFNEQ | q = 0 | S = 0 | Stoichiometry = C6H14B9NO2Ru | MND = 8
Ru        1.13430357112816    0.38714643820265    2.51592465624263
C        -0.67081572550046    0.01452717631239    2.40475315847138
O        -1.79751361682464   -0.21909823035693    2.36678796463176
C         1.07774552000016   -0.15074730312181    4.28122689986085
O         1.01238463435212   -0.48624640492837    5.38047407442146
N         1.68955004671381   -1.60199495039886    1.82873095580974
C         1.61234685932212   -2.75069696831711    1.81139151311331
C         1.52583662542459   -4.17714044051576    1.78220580185876
H         1.67877039701140   -4.57019207591057    2.78739681731125
H         2.28701530931089   -4.58397274283024    1.11647421676539
H         0.53909805348443   -4.47475910012382    1.42703814775916
C         2.03673457299509    1.23264380089972    0.67309168605705
H         2.03483310215615    0.42021249135625   -0.06323926738389
C         3.10811551544791    1.13620255997717    1.83294337284989
H         3.77308993510329    0.26452470613682    1.81732711618089
B         2.68213926530404    1.95941693528200    3.21570921905629
H         3.10086090300122    1.62128948404584    4.27122999104413
B         1.02817874337712    2.63864141840057    2.79960386736190
H         0.20080169326054    2.93470974268506    3.58851363891846
B         0.69582140260298    2.13718044517466    1.06553018620590
H        -0.34556002034612    1.92981754005023    0.53981171673755
B         1.94761164514052    2.83529542800383    0.02235223023464
H         1.69788101798663    2.96056268255838   -1.12019030168878
B         3.49036985412335    2.17164764461281    0.48692240752127
H         4.28122960108544    1.75191488441904   -0.27819195497388
B         3.87876678766002    2.66235360862167    2.11303137705839
H         5.00314074146983    2.66436596346637    2.45836964618464
B         2.52577149167347    3.63631655063576    2.73196564027519
H         2.67092154863510    4.50802754066460    3.50788383006581
B         1.30132116750159    3.74607040708516    1.40605914451719
H         0.61424684301986    4.69230042229270    1.28117771411074
B         3.04963960148119    3.79693772100770    1.02847114782785
H         3.58406291287925    4.75834262459555    0.61452338561524

