49
CSD_code = MEFTIB | q = 0 | S = 0 | Stoichiometry = C18H27BrN2Pd | MND = 4
Pd        7.52093356576626    3.68261077121355    4.89384685388761
Br        6.93732578287118    1.41180445421285    5.61125169244073
N         7.61495889535035    3.35979343672682    2.76802158843863
N         7.59853907679517    4.64606867539821    6.81608622114129
C         7.97644483977873    5.47843876427204    4.32456518999943
C         7.96834662899856    5.78223551028887    2.97035071290607
C         8.30419534774661    7.06626274045088    2.56452757794195
H         8.31096857277902    7.32432667871626    1.51430879064860
C         8.62515067747633    8.02240948626178    3.51671012390271
H         8.88045416103925    9.02278768605690    3.19900114447686
C         8.62408317282585    7.71656624150162    4.86953998330679
H         8.87699703416971    8.47623857953179    5.59654413692031
C         8.30436316865883    6.42983622853918    5.28017966518382
C         7.53727246351037    4.66292535582617    2.05735502622706
H         8.13351452035160    4.64868625536566    1.13799119606347
H         6.49176361996353    4.83110257754565    1.77175464661973
C         6.62067221500150    2.40140885633208    2.26848052973843
H         5.62812047040527    2.85958800382311    2.34485351026082
H         6.63853347794941    1.52317784293315    2.92220893762411
C         6.89939298232937    1.93792863452995    0.83885094450394
H         6.86207093856775    2.78095404040105    0.14527271259674
H         6.12544219239065    1.22849789927852    0.54318452651102
C         8.27287526617127    1.27565623381438    0.78524965665256
H         8.26941616366261    0.39067962973424    1.42524367046884
H         8.50444636929459    0.95488776866435   -0.23201983198624
C         9.32947374106574    2.25754621691105    1.28293943097864
H        10.30423247803778    1.77036356728826    1.33831211077070
H         9.42105832098901    3.08736483506129    0.57855749053770
C         8.96533859178735    2.77003134902952    2.67997684430519
H         9.00310337450143    1.91990421410373    3.37865021678843
H         9.69384731650648    3.52705438666717    3.00349373051376
C         8.32512482542509    5.93839883637023    6.70504803164617
H         7.90770856606530    6.68655052033468    7.38830518918812
H         9.36807976815861    5.76763051176987    6.99806422875285
C         6.15393854119467    4.84971374242618    7.04089914354571
H         5.65795042079154    3.87423154512389    6.92122652687554
H         5.77833289846598    5.53504690560563    6.26780753453017
C         5.81225463465418    5.39185994148757    8.43241660787706
H         6.18452139613169    6.41173856580761    8.55258751712877
H         4.72616111732462    5.42966756495504    8.52989062969918
C         6.41108648160448    4.49619329701113    9.51294527265506
H         5.94599144737648    3.50918054192895    9.46537083896060
H         6.21450720276777    4.91404939562914   10.50193645586714
C         7.91221207706917    4.35424189763661    9.27977311064906
H         8.40341529698090    5.32267186213233    9.39834065924689
H         8.34553048603486    3.66903492226079   10.00945474132933
C         8.15158307518338    3.79496563951186    7.87755113554261
H         9.22221813247334    3.65641831911885    7.68875615767681
H         7.66734820555676    2.81496907040921    7.81303718845862

