74
CSD_code = MEFWUS | q = 0 | S = 0 | Stoichiometry = C22H48Si3Zr | MND = 8
C         4.16478980874896    8.46136929316091    5.10783701859637
C         2.85528895860672    9.00511680574913    5.24817588555927
C         2.98746926730551   10.36297853464109    5.63632659809787
C         4.37069544935980   10.65583321775529    5.75316264523439
C         5.10175322264382    9.48129949247804    5.43591048614037
C         4.47742873952019    7.01642558415216    4.81454198180194
H         5.50600379552133    6.89552465925803    4.47406123715667
H         3.81634789640105    6.61537933882621    4.04352815460040
H         4.35405776416850    6.40617394158671    5.71357343667472
C         1.57120935748974    8.21510254244248    5.27471227684046
H         1.22961307841011    8.10295875982675    6.30725584263009
H         1.71721700149794    7.21498868757450    4.87015375816012
H         0.76919304443787    8.70058557740662    4.71525302117665
C         1.88865239693984   11.27922045427014    6.10193515282164
H         0.91548727926596   10.80506203218617    6.00099716008318
H         1.87500314930141   12.21773687891056    5.54439840298616
H         2.03301010989419   11.52391078477455    7.15697241786470
C         4.91774775176134   11.89426065860268    6.41130142763678
H         4.65678164846728   11.89156084609472    7.47328269969112
H         4.50255726237062   12.80751046836176    5.98113265083157
H         6.00196654868561   11.93512286321881    6.33840409735229
C         6.58117985812749    9.30895952926270    5.66489930026314
H         6.79870808711459    9.37464229920958    6.73397868088908
H         7.16547186275652   10.07700713589436    5.15615280771020
H         6.92397571691942    8.33380707357037    5.32352685763132
C         5.97107571852908    9.67545188389683    2.29040985858638
H         6.49321204895490    8.99246068789527    2.97537139454301
H         5.84276640159853    9.12470576825037    1.35378073325791
C         6.45174088806548   12.07928230297505    0.35852827969900
H         6.72909256759020   11.51953563877766   -0.52854420201936
H         6.90188528882650   13.06344275022731    0.27286486382447
H         5.37206532178258   12.20514163004388    0.34201041146898
C         8.92065000267655   10.84232012792385    1.68471365609817
H         9.35716365586401   10.34164832250325    2.54408127442578
H         9.47562552548663   11.76215242396200    1.52683946942172
H         9.08826936656833   10.20761553329545    0.82025685196598
C         6.93462581325340   12.39956192329117    3.42669529876261
H         6.00046664063646   12.26333707538149    3.97138466172098
H         6.97784374412995   13.43192756138672    3.09269163047484
H         7.75815054699271   12.26013844110652    4.12152777604539
C         3.47262448301575   12.25278231136165    2.82835096466232
H         3.53465944310819   12.76744408088416    3.80020146273348
H         4.24462008185139   12.70728312498436    2.19440619320738
C         1.81183090269930   12.14898390237352    0.20198348715504
H         2.47140638618316   12.81606045329839   -0.34387555458162
H         0.82354592441699   12.24496606145660   -0.23653387139714
H         2.15634608251573   11.13382498134370    0.03263383817373
C         0.45975792779474   11.51695211922683    2.95650999661635
H         0.92032269347623   10.68132696390540    3.48471121535524
H        -0.25905698122821   11.11215317988208    2.25018175314740
H        -0.10148615625338   12.10202081211445    3.67867308867403
C         1.16007018812053   14.40190208020685    2.18127013004040
H         1.10385968588958   14.73874232240083    3.21247851085306
H         0.17088903050684   14.51389837496798    1.74783171777565
H         1.82551346968336   15.07922150685779    1.65501687123428
C         2.57891051761305    8.83198381652581    1.98853942669326
H         2.12962689079409    8.08680737108884    2.66012123215547
H         1.75576593571996    9.47590219373007    1.65328877461992
C         4.51848796339741    6.58839519295505    1.04590712525782
H         5.15298008246411    6.93804931506575    1.85631049167037
H         5.16332546496868    6.28858080792924    0.22572855394537
H         4.00406689729564    5.69556898591334    1.38886273191965
C         4.09772746292488    9.20299091326921   -0.68535297572312
H         4.33361876110752   10.12548426595904   -0.15675387216321
H         3.44445999729883    9.45063425175703   -1.51631070907956
H         5.01850209604221    8.81641253523577   -1.11114531999267
C         1.96734182854208    6.99604631493727   -0.58273759706580
H         1.45618963930150    6.22880132819131   -0.00890235031210
H         2.42711775912658    6.51092591066325   -1.43846720136256
H         1.21013521501788    7.67604491428090   -0.96143598665897
Si        7.04374842085196   11.17487575199872    1.94444344154882
Si        1.79210889063478   12.58830108135469    2.06705157874322
Si        3.26072994298093    7.93321759154118    0.48968851305444
Zr        3.97071048548365   10.09915565212209    3.23243838240073

