56
CSD_code = MEFXEB | q = 0 | S = 0 | Stoichiometry = C24H24ClNO3PdS2 | MND = 4
Pd        1.79390553591808   -0.16768678719220    5.33865398300506
S         2.90952283477750    0.77316663193512    7.09782779661766
S         0.90616233516113   -0.99083572322848    3.38742206444227
Cl        0.22484494164242   -1.23584631699634    6.68219672850943
O         2.24209908880538   -6.45954353375677    5.21477603681010
O         7.05698061582654    4.09264441555398    3.06623242246375
O        -1.67368273250818    4.01489749054747    8.96895735094342
N         5.96558141461156    2.61759638185110    1.70949952122336
H         5.92836340110603    2.28204580371246    0.75682855366076
C         3.13518342349514    0.74408995061243    4.18300958436151
C         3.23454927245458    0.43241300954765    2.82468026009432
C         4.00760733197021    1.69515409766821    4.71571399242915
C         2.30966178459418   -0.59733105664523    2.24125790261410
H         2.82202311828638   -1.54067994823166    2.04272300117801
H         1.85180461452812   -0.24414137531727    1.31515077784039
C         3.90451961551909    2.03786460340524    6.17274726319373
H         3.40795754097956    2.99765827087699    6.32663438558785
H         4.88645983284968    2.06977401245030    6.64742873040010
C         1.33249779054613   -2.65489945356304    3.88862786657511
C         1.52053552196414    1.77885668379055    7.60686736658797
C         4.17344644026854    1.06618959753494    2.02443866154751
H         4.23689051716888    0.81959636412227    0.97225493022686
C         5.03798243687164    2.01293756050239    2.56806587925112
C         4.95629487571229    2.32253336507721    3.92033069415601
H         5.62662664553353    3.05225638900680    4.34212714968151
C         2.54385307328689   -2.92878388921207    4.52683624981573
H         3.28750971610766   -2.13849358828864    4.69289358473984
C         2.81099191766928   -4.21382273772345    4.94311658513597
H         3.73511092123446   -4.45176949790788    5.44549337103433
C         1.87650295927595   -5.23858684763402    4.75303627507726
C         0.67255587873395   -4.95232333396780    4.11812817338999
H        -0.07143107533716   -5.71644516475011    3.96085970229211
C         0.40793708603560   -3.66293146984532    3.68743366232618
H        -0.53357426309568   -3.43516552355854    3.21175430074331
C         1.32411062967931   -7.52286710016192    5.11706010492111
H         0.39644754259529   -7.30171351644427    5.65340847474533
H         1.81375350375523   -8.37727027498763    5.58147124408078
H         1.09535242860689   -7.76123195376223    4.07316921494997
C         6.88858605385308    3.58392138700824    1.98189295094636
C         7.69826894947077    3.96090653923127    0.75575600967703
H         8.39557492133095    4.75041616832393    1.01984585000605
H         7.04175727117575    4.31305260970598   -0.03755994688018
H         8.25572795785710    3.09845473415450    0.39508065456726
C         1.35514310538009    2.05570666922322    8.95680281316802
H         2.06524100611430    1.66981269311379    9.67150219941787
C         0.27779204482375    2.80490951367176    9.37648008256198
H         0.12471965646745    3.02411000976785   10.42089398988782
C        -0.65233791944084    3.28860725991992    8.45302019854106
C        -0.47718600919472    3.00970347191553    7.09850583454863
H        -1.18284473862491    3.36047353597814    6.36248198891822
C         0.60208104187574    2.25299557046302    6.67825543194927
H         0.72311015749159    2.03499390645097    5.60590857302462
C        -2.67231150432312    4.49427810943892    8.09931536731612
H        -2.26289183072625    5.19716275148703    7.36651879912509
H        -3.38886276268218    5.01373314062293    8.73336600267451
H        -3.17710591736074    3.67515639452213    7.57851935389140

