54
CSD_code = MEFZIJ | q = 0 | S = 0 | Stoichiometry = C21H25Cl2IrN4O | MND = 8
Ir       -0.85132489873864    8.86519837521658    4.29319043136401
Cl        1.39617205868511    8.88872006698763    3.53711690146328
Cl       -1.10454331592746   10.98055061956778    3.27784794412861
N        -2.29334414809853    8.44703934405867    1.61863342659575
N        -2.17840031190958    7.90656303416068    0.43094383256120
N        -1.12858319665119    7.14322049085812    0.47317161624116
N         1.39113617749193    5.85731834124122    1.15259316210566
O         0.80671876974187    5.98845869984407    3.31086334240349
C        -1.87637816311663    7.46786573998167    5.72981895071649
C        -0.52821449520066    7.64499799550663    6.14675536385135
C        -0.34515989273656    9.03267251504329    6.50729596654203
C        -1.56561921816501    9.69910179374564    6.31043361633096
C        -2.50897821147286    8.75611701164791    5.75394751068061
C        -2.54266141251710    6.15710114439393    5.45211930086005
H        -2.86623557961226    5.70326904864149    6.39078858408511
H        -1.85906904617098    5.46944515183429    4.95883654777024
H        -3.41725355026630    6.28511715876298    4.81830335283064
C         0.48044412201563    6.58136505883466    6.41911675916886
H         1.44547808659351    6.86621488487102    6.00372113788554
H         0.17407713903545    5.63406227428130    5.98395220788181
H         0.59827689224898    6.45176336208783    7.49724870829677
C         0.90967211840195    9.56597708967702    7.11791907667720
H         0.86182095932725   10.64526419668458    7.23840337348759
H         1.76539604634596    9.33421573452692    6.48449241796651
H         1.07642587027449    9.10907385250075    8.09536880759279
C        -1.90502607861401   11.11377244392471    6.64142087014349
H        -2.09225290708193   11.68591297015511    5.73178337810840
H        -1.09417375728714   11.59411509084524    7.18297568084637
H        -2.80584160475414   11.14548369632616    7.25466702151571
C        -3.97147289996059    9.03722303536531    5.60915698558453
H        -4.44275066228589    9.06109916491673    6.59417242408710
H        -4.46685772700485    8.26937856088640    5.01901253545380
H        -4.13015261691062   10.00373514331227    5.13542004874305
C        -1.31518993646117    8.06921441276641    2.48732753251580
C        -0.56513718841002    7.16768030083268    1.70693422854878
C         0.56895807480885    6.35078225433050    2.03028213196524
C         1.92716238613060    5.22908986512874    3.24419173542684
C         2.64364623332632    4.59011268610768    4.23953169654297
H         2.35892429997961    4.65662176050976    5.27626390812653
C         3.75267343875584    3.86889292732492    3.83755546717653
H         4.34494142408123    3.36086746238927    4.58354998787270
C         4.13178745437347    3.78078304209939    2.49741560358456
H         5.00929226149132    3.20648126825854    2.24075533637814
C         3.41700630866518    4.40922940325591    1.49952860214609
H         3.70433140084734    4.34911817484949    0.46273808959295
C         2.30082966579732    5.14066673138652    1.88492673076342
C        -3.40723745558566    9.31716469858582    1.85971284394674
H        -3.92488531675839    9.46326256026121    0.91529722042850
H        -3.03315574079414   10.26675326949870    2.25227666827744
H        -4.07741718491841    8.86726985334727    2.59073513336074
C        -0.68925289658062    6.43686790627399   -0.69074785307873
H        -0.61938415674604    5.37063194573757   -0.47813467143278
H         0.30250557546255    6.78593610444378   -0.97655078725344
H        -1.40812319310840    6.62486028200401   -1.48528088879589

