103
CSD_code = MEGDOR | q = 1 | S = 0 | Stoichiometry = C46H46CoN6O4(1+) | MND = 6
Co        8.81308083938389    9.21442889119463   -2.91789025797223
O         2.57718496053088    9.35173737314632   -0.75840420331195
O        12.56793838795728   13.47042055387707    1.15009995363027
O        10.69214179112651   13.90584430837832   -7.76497435832108
O        11.61450909771323    3.48654466012027   -4.55733086691116
N         7.17062889164078    8.76113276619473   -3.80142517074532
N         9.52616024333146    8.62320378389177   -4.45585801149611
N        10.90554038639669    9.94689823376043   -2.78207271416292
N         8.60747430334044   11.49052587283925   -3.24686353155093
N         8.07966240070146    9.81335792782439   -1.36933527903657
N         9.13562124686749    7.62581936629556   -1.84060942837859
C         1.83911990715915   10.55205694470531   -0.72201434534815
H         1.01987028432963   10.37110288598870   -0.02889768738572
H         1.43112531532475   10.80166607435675   -1.70588058084396
H         2.44662172630713   11.38505153315847   -0.35464805474723
C         3.65968874981795    9.27039460987705   -1.56589032923184
C         4.15031053738709   10.30449554322900   -2.36063763344968
H         3.65421726568967   11.26126717087677   -2.39110191836275
C         5.28815484565538   10.11643855517219   -3.12171151038753
H         5.67025113717063   10.92130221521996   -3.73108669569336
C         5.95119621948865    8.89326610460915   -3.12560036263879
C         5.43979956743390    7.84851682393586   -2.35136060501659
H         5.94364082311485    6.89343736729950   -2.34801922634205
C         4.31928014178671    8.03819614669438   -1.57654016452732
H         3.92314665234483    7.24276277051439   -0.96570387737388
C         7.34572665664372    7.94539651833150   -4.81372072858303
C         6.25879239745994    7.16309584751128   -5.47690938664910
H         6.47820508103909    6.09670908366982   -5.44228224376062
H         6.18028929327396    7.45266476333358   -6.52435416450310
H         5.30236124100462    7.34438128984152   -4.99341765410884
C         8.70138259947471    7.92447687596674   -5.28069063118061
C         9.18900820198250    7.31315874192302   -6.43701639433302
H         8.52310913203960    6.75108742355490   -7.07152751655326
C        10.52536730184560    7.44878303191818   -6.75262965172377
H        10.92518158110479    6.99567752242146   -7.64588799398183
C        11.35931508404395    8.17527086864663   -5.90695360308342
H        12.40400843482472    8.28556536705665   -6.14422011127769
C        10.83389167905145    8.74605106327834   -4.75602544857975
C        11.60075837834185    9.48594793152559   -3.76159510869751
C        13.08754756378755    9.59026572207172   -3.89529856710081
H        13.34746593060912   10.23469679589751   -4.73404710621745
H        13.51287121996166    8.60577124339519   -4.08148885737727
H        13.52703955904246   10.00151055951045   -2.98994595474239
C        11.39430348416747   10.77487644274920   -1.78539572416015
C        12.07025033800314   11.96234292687997   -2.09005376293904
H        12.26539910454310   12.20994919526384   -3.12248668310509
C        12.43244868675092   12.83495495036096   -1.09101483169287
H        12.94083640540458   13.75828158049323   -1.31877763651013
C        12.15943324299089   12.54452605714130    0.24924342675719
C        11.49530220942485   11.35919654970430    0.55779811324076
H        11.27280672783667   11.09894754938983    1.58041418787835
C        11.10861293672272   10.49734920018563   -0.44990222709931
H        10.59999099168115    9.57743558594010   -0.20350962915733
C        12.36202199122832   13.22560036536398    2.52210929490450
H        12.79058449558798   14.08141077192655    3.04016837633308
H        12.87194261512755   12.31389150927322    2.84747441184758
H        11.29640004534563   13.15410201892032    2.76203105415156
C        11.42673101228149   15.10796758824326   -7.72345494501320
H        11.69116293855723   15.32604183019486   -8.75644472719834
H        12.34120218572970   14.99982410592796   -7.13194328695584
H        10.82682899077152   15.93040945388073   -7.32257727496480
C        10.19444509602931   13.40157625257553   -6.61077856891180
C         9.43633254734421   12.23093903111879   -6.73193222822389
H         9.29067879160933   11.81913793219586   -7.71780900236561
C         8.89732974048342   11.62485239504945   -5.62394254410222
H         8.30692247791911   10.72706153539784   -5.72577934440286
C         9.07129374328902   12.17920570553844   -4.35034996844947
C         9.82465272614869   13.34826147997269   -4.23338155406190
H        10.01284351787076   13.76289254846838   -3.25441818302049
C        10.38966061426309   13.94624823988541   -5.34442953458559
H        10.97980454013301   14.83868921488774   -5.20937692374598
C         7.96972186904736   12.00416689615787   -2.25850236378238
C         7.43507778828309   13.40305646554809   -2.20375484576916
H         7.99128206026374   13.99491534398159   -1.47800359222796
H         6.38909360928463   13.39237861937128   -1.90363956956548
H         7.51887010279417   13.87958238964434   -3.17752076621246
C         7.70049795605623   11.08771084395006   -1.15370349019341
C         7.07599173599111   11.45906418671698    0.03032950480942
H         6.78881679329643   12.48368018136690    0.19758193712824
C         6.81388091108518   10.49651677755411    1.00008222758322
H         6.31978774563552   10.77226043732439    1.91833842285721
C         7.18990716555642    9.18886757283671    0.77272927153079
H         6.99337614452654    8.42110164554945    1.50292332619522
C         7.84191569758496    8.87013761157988   -0.41931544563224
C         8.36373819212312    7.58177853455055   -0.78566250629900
C         8.09417466517481    6.35536203233013    0.02500615768844
H         7.02357423690192    6.16627973726697    0.08958976979503
H         8.47039670233100    6.49057816569965    1.03865526095772
H         8.58470069198328    5.48980334221382   -0.41289620190916
C         9.71642586669301    6.50173478426626   -2.43543096305068
C        11.10874961036987    6.40631716641258   -2.50424402124723
H        11.71030198542013    7.14234656944512   -1.99342560238752
C        11.70180203206654    5.38250891437405   -3.20256402621080
H        12.77482211580314    5.29208481655007   -3.25491466422330
C        10.92676816969063    4.42869686671065   -3.87223833704113
C         9.53975779210125    4.51472508179003   -3.79699279044162
H         8.91122016255505    3.79211988486768   -4.29256051685780
C         8.94613934304720    5.53635492527175   -3.07808854253408
H         7.86863274879844    5.60088593342300   -3.03637136193775
C        10.90192384756792    2.47220839559624   -5.22826727773935
H        10.29875473590408    1.87968922508795   -4.53407038927018
H        11.65765105962695    1.83391701728893   -5.68181717105690
H        10.25953720766227    2.88531848532618   -6.01226373533134

