37
CSD_code = MEGFIQ | q = 1 | S = 0 | Stoichiometry = C12H20BrN2ORu(1+) | MND = 9
Ru        5.84912079735804   -0.70571244188168   19.11451100676647
Br        6.02301023499068   -3.13762221949536   19.54136099481325
O         6.77525641046463   -1.13776110687876   22.41727018579427
N         6.90909989036524   -1.11279033854924   17.26082354009958
N         4.19510302501853   -1.24721056426744   17.79423550019201
C         6.36223178857674   -0.36689424004769   21.42879621863229
C         7.36910992484856    0.14823370306500   20.56301723727730
H         8.39895432269215   -0.10646349205501   20.78806425134455
C         7.05879221955513    1.11249693455059   19.58167951698642
H         7.87544317780823    1.57217731341328   19.03579671244677
C         5.73150759100427    1.57817652202606   19.38547707041581
C         4.71635635036919    0.91033250312086   20.12659368552837
H         3.68470875183034    1.23457338611501   20.01381373503177
C         5.00973577751443   -0.05346205796648   21.11900435996454
C         5.84385945825887   -1.87163056849092   23.20084057685262
H         5.26689834330312   -2.55702625745796   22.57495128658771
H         5.17690161070030   -1.20646561076103   23.75415098658965
H         6.44780021275453   -2.44536135040770   23.89992523522507
C         5.37547706361668    2.66738098012194   18.49062553295570
H         4.31088160364894    2.82346488311694   18.36128148780437
C         6.22115594620529    3.49341148802227   17.87017755531321
H         7.29076572268688    3.38976251529063   17.99529129616372
C         5.79588825718034    4.61135350125622   16.99445576984659
H         4.71514073465394    4.65274957843102   16.89019864692228
H         6.24853990372022    4.51031342787626   16.00829307705439
H         6.14732131258953    5.55620529763558   17.40830860614044
C         5.96016933125053   -1.06366352291351   16.13717963492056
C         4.71714465800989   -1.84859236960395   16.55344490484216
H         3.96889163374869   -1.83875714701278   15.75522143176052
H         4.99640336759556   -2.88636809436685   16.76735134062240
H         7.29249959396612   -2.06520577716317   17.32929615626782
H         7.69592018891228   -0.48519706294340   17.08291664640583
H         3.57411062325427   -1.91993685315765   18.25386174705624
H         3.63996784791405   -0.41873980547344   17.56578919289929
H         5.69647220463410   -0.01722093206614   15.94938133450265
H         6.39023329584721   -1.49041832823664   15.22522111504708
H         4.20632682315136   -0.43593189284343   21.73819242292642

