83
CSD_code = MEGFIO | q = 0 | S = 0 | Stoichiometry = C46H27IO6P2Pd | MND = 4
I         8.28522422365501    2.01589553618889    2.43407810445996
Pd        7.77613960626415    4.54544061680245    2.26128218077869
C         7.92380487066930    6.54720112403016    2.13627592156449
C         8.19475424097648    7.31539053765153    3.26295024556434
C         8.42077736992501    8.67828686742900    3.15058136889991
H         8.61959297372091    9.26166704034008    4.03486674293413
C         8.38936075999486    9.26048355538450    1.89236738003734
H         8.56603242534514   10.32034002357291    1.79764132510765
C         8.14849720467035    8.50905002326146    0.75284337747907
H         8.14200385586634    8.95962063909300   -0.22655303837906
C         7.92535184391501    7.14589981720852    0.88329615146352
P         7.72536370715727    5.16647481595757    4.38698327232880
O         8.21953839761335    4.52649372180003    5.75507974633442
O         6.13173281566329    5.37009501505280    4.64621392957579
O         8.23553969866724    6.68673351131071    4.50668549942594
P         7.50227879278815    4.78325271326800    0.08417343186064
O         7.71512638110030    6.35474578934860   -0.23587488710905
O         5.93666317461356    4.50732498483870   -0.21137712315766
O         8.23147847070687    4.23521175282043   -1.22736052495933
C         6.72368183476589    2.60749720603074   -2.12487781680715
C         7.93030463255899    2.90125169337440   -1.53053222611575
C         8.86807307865748    1.91197031240805   -1.21147898929825
H         9.79600132425290    2.20652920964760   -0.74776026630455
C         8.58012933586913    0.60346087908857   -1.47413492165269
H         9.29111791575191   -0.16816929073836   -1.22523832505627
C         7.33348196689544    0.23724258310137   -2.02217521601765
C         6.38430744139887    1.24373653918274   -2.34507238482254
C         5.11552716627559    0.84994348898978   -2.82192842051927
H         4.37345992972407    1.60626330659975   -3.02892229804189
C         4.81799411161136   -0.47102040692028   -3.00973616984837
H         3.84228210016742   -0.75810611465044   -3.37326655017693
C         5.76898450305203   -1.46317543432626   -2.72808381915512
H         5.51773980785638   -2.50092860758844   -2.88918854702247
C         6.99617401843463   -1.11548168403711   -2.23862130926917
H         7.72804960525535   -1.87127292758272   -1.99566036516023
C         5.81796990811059    3.71841823712518   -2.48016691562082
C         5.45339441491947    4.62790066704008   -1.51219099837811
C         4.56951623506687    5.68279819659066   -1.78041383673162
H         4.31359025056051    6.35509692500832   -0.97572552512345
C         4.05471610072840    5.83415678911485   -3.03538201289970
H         3.36435216249517    6.63643558672694   -3.24953832621846
C         4.44116284239600    4.96861417632228   -4.07978572394570
C         5.34587154854662    3.90751426779245   -3.80943190941037
C         5.78293218556502    3.10438338392192   -4.88479115507997
H         6.50531876146056    2.32499537960898   -4.69765992925040
C         5.31375323951792    3.31410820391919   -6.15156734571385
H         5.66044799417599    2.69413558824478   -6.96478521880694
C         4.38670080839993    4.33471037385516   -6.40988437159017
H         4.02062896828833    4.47988658310682   -7.41533115551375
C         3.96600601344054    5.14786820800382   -5.39597281033469
H         3.26865971796389    5.95085519832024   -5.58670210795105
C         6.21363718230321    3.31154543783317    6.49738232796952
C         7.40823400950410    3.96227236153825    6.73187342334823
C         7.94096152926462    4.07565172264204    8.02877416661183
H         8.89575747860972    4.56625455092317    8.13364884570476
C         7.26995467965232    3.57136475171489    9.10113353762398
H         7.69065710910533    3.64078197140919   10.09290733903333
C         5.99806290405461    2.98547190670182    8.93320939740906
C         5.45353927254016    2.87518989085450    7.62766041955144
C         4.13847478166677    2.37827723099985    7.49732547123586
H         3.68240950271080    2.34227217838368    6.52040875529072
C         3.43012058573600    1.96151714354583    8.59043783431413
H         2.42385686066060    1.58915525693456    8.46905082357820
C         3.99424310146964    2.01851323073677    9.87232791286540
H         3.42544872840671    1.67330533070886   10.72266887145319
C         5.25011706620210    2.52999336222315   10.03839187593114
H         5.68913706219558    2.60658545302679   11.02253934977120
C         5.67886899739892    3.08051970871168    5.13797409424955
C         5.56087180954781    4.14452297326952    4.27543552722062
C         5.05384677164811    4.02513929295779    2.96641010091303
H         4.95822706487065    4.92576533197927    2.35826593842468
C         4.61082639584595    2.80211940530466    2.53905941271743
H         4.19931782900076    2.68650592065475    1.54690066088667
C         4.74657657050685    1.66246910418896    3.36350351419970
C         5.29752721379938    1.78772609716704    4.66852119018004
C         5.53437837885688    0.61567612424314    5.41482578473432
H         6.00826412582941    0.69416626031354    6.38044131542771
C         5.19746934215695   -0.61179625559152    4.91582831881950
H         5.39584093056863   -1.50061808877933    5.49522953517761
C         4.60963956307118   -0.73091832006287    3.64937693569609
H         4.34908576956457   -1.70820075780800    3.27237449142591
C         4.39613099472672    0.38269194679668    2.88760048739750
H         3.97912565107029    0.30025287361554    1.89476620447875

