65
CSD_code = MEGGOV | q = 0 | S = 0 | Stoichiometry = C30H31ClN2Pt | MND = 4
Pt       -1.90423541157316    4.95702555681326   -4.08529640848343
Cl       -0.90876650579983    6.29790945271220   -2.37671330437890
N        -1.26422053765695    3.08504878970229   -3.50890887874273
N        -2.75168827216322    6.43054457162680   -5.24664961900026
C        -1.19636815093337    2.85859168060268   -5.87767171271475
C        -1.87564541140814    4.07657628941915   -5.80320723889218
C        -2.08071670952270    4.88216724103882   -6.92568584808515
C        -1.73787916556363    4.37387476096400   -8.17653566791236
C        -1.15929687692436    3.11519805692266   -8.26410105974790
C        -0.86050241790840    2.36391628698220   -7.13587688867930
C        -0.91828013365498    2.28895002655209   -4.56428814644881
C        -0.38718745298947    1.02276946051403   -4.35423487544608
C        -0.24311480198302    0.53897906886006   -3.06588801249922
C        -0.66802554202572    1.32224175847709   -2.00669645279519
C        -1.18269469722263    2.59895987453891   -2.27317414327580
C        -1.70456531524655    3.41296339920877   -1.12641182997617
C        -1.55230086449022    2.64703979341660    0.18181230209887
C        -0.11601268232098    2.10211195537613    0.23364981714048
C        -0.64652135819391    0.90287979865130   -0.57547259505771
C        -2.04450759948454    1.18440540491377    0.04641922236557
C        -3.28040518086414    0.90119409423828   -0.79762293062515
C        -2.22253558330591    0.50283692027808    1.39935579942109
C        -2.62783873543210    6.19080117165504   -6.58617056927309
C        -3.04237326794533    7.13500205368996   -7.51679797144079
C        -3.63483182681157    8.31072592876218   -7.09076419554046
C        -3.84169610319588    8.50182629601989   -5.73551926574740
C        -3.38165145212884    7.52839866543902   -4.83733269372265
C        -3.63971175951126    7.72738586823944   -3.37315523638092
C        -4.43502506875515    9.00620869931845   -3.14416782872935
C        -5.59245606588120    9.05289186777640   -4.15435174586819
C        -4.57416703771828    9.65792150064668   -5.14204765808756
C        -3.79120821268984   10.19032640643113   -3.90918268489330
C        -2.27343440312374   10.26659597215976   -3.99741527193524
C        -4.31312500546828   11.54235650716729   -3.43313429248847
H        -1.88900898763910    4.95301898659960   -9.07585587218501
H        -0.89677301593384    2.72599407749272   -9.23712866642415
H        -0.34661156872375    1.42013867224938   -7.24650746006450
H        -0.10647834319321    0.41859633358212   -5.20163398998093
H         0.16659929086533   -0.44442748265123   -2.88783321060988
H        -2.74788063540356    3.68438629632482   -1.32451850637534
H        -1.14551321548910    4.35228044744308   -1.06928007960424
H        -1.91824904968088    3.22504193732927    1.02985010583109
H         0.21750221815156    1.83519463343419    1.23187004409809
H         0.64721819586689    2.70758370750023   -0.25124026654808
H        -0.20078041532430   -0.08013849320695   -0.42765922049392
H        -3.20572859311000    1.30402448309808   -1.80294680950464
H        -3.43291463437510   -0.17383052842162   -0.87803710163161
H        -4.15656498993942    1.33513714865152   -0.31957135124650
H        -1.37762083593893    0.67382124183996    2.05903198603258
H        -3.11703934671762    0.88298973493555    1.88908581219428
H        -2.33791458984283   -0.57128537702966    1.26522505630195
H        -2.91279361756966    6.93576451078427   -8.56818517646095
H        -3.96062285584387    9.05451658806803   -7.80301910971706
H        -2.68906601711719    7.75998595303569   -2.83358016036999
H        -4.18463796617602    6.85522429872329   -2.99124185624024
H        -4.66264106632718    9.15341575566494   -2.08880775509609
H        -6.38626428044598    9.74098171110557   -3.87950654055506
H        -6.02810770361109    8.09675582329415   -4.44089261056558
H        -4.91700983876392   10.37219453808953   -5.88980688796197
H        -1.82837286212135    9.36793976294253   -4.41199424451514
H        -1.98261013438802   11.10618564185240   -4.62676082783969
H        -1.85658106501321   10.42175628857704   -3.00453170267727
H        -5.39351528803899   11.55209106735626   -3.32516441656226
H        -3.87351642786459   11.78635237204279   -2.46814831655085
H        -4.03481275039052   12.32118469017167   -4.14087297882643

