27
CSD_code = MEGHIS | q = 0 | S = 0 | Stoichiometry = C10H12N4Pd | MND = 4
Pd        7.96052175817369    7.17210605002816    3.52988310065478
N         6.82168031497738    5.98058943677322    4.96645304798472
N         8.47664515822827    5.11775146307534    2.98039829554780
N         6.12937286615332    3.73763927130228    5.28992650696407
N         8.33382059382462    2.93193547298770    3.88497397325066
C         6.91189858032046    4.65609726697327    4.74428886828764
C         7.96476640872403    4.20236047275083    3.82440931037915
C         9.45118116144063    4.70897767487205    2.16992313125782
H         9.86143910553054    5.45002982632254    1.49304386852106
C         9.90794421868853    3.40179967570954    2.17930410749608
H        10.69645596723199    3.07644125479968    1.52126524309354
C         9.28932749016675    2.52978393235406    3.07162957724167
H         9.56542432003933    1.48629478778609    3.14290946829494
C         5.17261699121101    4.14649461414384    6.09837801757415
H         4.55364060079272    3.37218794211909    6.53109190713316
C         4.97038108258100    5.49704733767030    6.37115729523241
H         4.18078548165742    5.83336993000442    7.02238503293046
C         5.84377593762861    6.38936333173129    5.77300433990082
H         5.77348644378263    7.45720346994678    5.94697372539846
C         7.59552134391763    8.99703323680001    4.34609858656436
H         7.72831023828642    8.86621243416085    5.43337266658779
H         6.54618803158356    9.26055851000276    4.13896867886010
H         8.22594423242857    9.82784126247699    4.02390429267140
C         8.85765651722650    8.10247806446384    1.96239395238607
H         8.59596211937957    9.14589215806771    1.77764129271174
H         8.57772332267031    7.51487447080597    1.07158001724627
H         9.94792971335307    8.04143665187127    2.10774169582683

