89
CSD_code = MEGHOW | q = 0 | S = 0 | Stoichiometry = C33H52FeN2Si | MND = 3
Fe       -0.35539098058656    5.05627350421751    5.05684536675702
Si        0.06950935685531    6.31841158006161    1.77038787706457
N        -0.43227160481991    6.15938332671437    6.66197424091757
N        -0.18016768704933    3.61829437660385    6.36568454300843
C        -1.73603668603970    8.00296739839674    5.75280060433497
C        -1.79116407907608    9.32237556175633    5.32804191029509
C        -0.65005770411142   10.09852047518123    5.27537325430950
C         0.57503166374912    9.55482966028628    5.62405884831999
C         0.67118915261242    8.24693581124024    6.06724959103332
C        -0.50011548263518    7.46789622302499    6.15274332054699
C        -2.98510447474537    7.15598412914661    5.81700856594906
C        -3.74663652547442    7.18646171666884    4.49163126760598
C        -3.88658645069795    7.60642415855306    6.96910556112438
C         1.99628462468523    7.59940593241521    6.39486913263577
C         2.44951273639810    6.79650799508032    5.17113594127071
C         3.08159124613454    8.58484882479350    6.82286696208803
C        -0.38569467586555    5.94452193323488    7.96132377093713
C        -0.48141009875455    7.08670399410870    8.94362633484416
C        -0.22620673113926    4.66061645580220    8.47935952684317
C        -0.12231084844599    3.52689006864265    7.67945366801053
C         0.06318666672951    2.18096865673594    8.33196381988177
C        -0.17313101447399    2.46767394886753    5.55891857340442
C         1.02318666385480    2.03235487577043    4.96447340568300
C         0.99925932775795    0.91587476467659    4.14163796665664
C        -0.17809095440265    0.23285757056498    3.90729580976900
C        -1.35495588278390    0.66025710859610    4.49715146226026
C        -1.37309716350317    1.76428691674003    5.33265207035155
C         2.31230366819794    2.78267263638008    5.20461774220541
C         2.80115666534895    3.40403832695122    3.89569126755437
C         3.38605434532024    1.87763087101363    5.81166559358854
C        -2.65734700906522    2.26903111519785    5.95081594005262
C        -3.65477102075260    1.15864098872219    6.27861104116108
C        -3.28200152813575    3.29904299582229    5.00629694854951
C        -0.63800146336920    5.16690344876993    3.08519375495401
C         1.90977981460267    5.98422673979010    1.36686796748483
C        -0.89018200701385    6.11060342536523    0.12148954083480
C        -0.11047376046986    8.14349730189740    2.30180961916315
H        -2.73817745267947    9.75278464920105    5.03966671941289
H        -0.70882418229173   11.12604587120302    4.94837013235558
H         1.45960027641723   10.16759816756089    5.55138804425572
H        -2.67251846356336    6.12034185312814    6.00731585894394
H        -4.18836443941302    8.16396637310179    4.31376327794738
H        -4.54816630102773    6.45100102217920    4.50418770260959
H        -3.07376030085765    6.95540898432928    3.66959505528673
H        -3.37106963689332    7.50225303104556    7.92068221768801
H        -4.78929170008781    6.99995587714448    6.99978097283178
H        -4.17530570352480    8.64834143410108    6.84624671509285
H         1.83841996363645    6.89122412926513    7.21365279151889
H         1.67723389488697    6.06780274803143    4.89343067251326
H         3.37354886262509    6.26578375352337    5.38682106972376
H         2.61550653761306    7.46091329482812    4.32632327974280
H         3.40973859979972    9.19791765349551    5.98688133094728
H         3.94607146192127    8.03876482425100    7.19485172163298
H         2.72090049500152    9.23697019698814    7.61537129306071
H         0.51533615742496    7.37706117170745    9.27731234399664
H        -1.05121940341922    6.78096442684656    9.81833401326004
H        -0.95229927880369    7.95676985655874    8.49142955362870
H        -0.17768921266738    4.54490077245504    9.54954531551794
H        -0.82751349296298    1.56648506994086    8.20322536506706
H         0.25880556260183    2.29300549127443    9.39462499091670
H         0.89422480896086    1.65139338081934    7.86840556314359
H         1.91201524666109    0.57323631922701    3.67755448884824
H        -0.18216098446406   -0.63392962257992    3.26282879577442
H        -2.26709234549801    0.11930301688506    4.29968007943770
H         2.10476153860884    3.59766369776858    5.90838464129965
H         3.02244607487964    2.63447952761468    3.15988193384612
H         3.70523994058235    3.98412465724335    4.06469163391491
H         2.03346041941227    4.06130777359855    3.49263463752786
H         3.03242237293870    1.42294617433205    6.73470167959723
H         4.27896901210931    2.45705195801213    6.03635994450414
H         3.66110188267054    1.08159425746875    5.12392551824586
H        -2.41009224647107    2.78929612486266    6.88121096841941
H        -4.09438124317178    0.74180526475374    5.37577713193120
H        -4.46242940794584    1.55882654995574    6.88802917718188
H        -3.17210879341660    0.35599416147677    6.83239061722031
H        -2.57495738057503    4.11876363465862    4.84793436718166
H        -4.19815900367778    3.70134232781786    5.43272665263671
H        -3.51175304378364    2.84557414038699    4.04446159318328
H        -0.33963713937516    4.12910053282313    2.86140852921504
H        -1.73363853460927    5.19520186870082    2.98679424100361
H         2.55293190510539    6.14809402728539    2.22432493026021
H         2.25170987759007    6.64124033577239    0.57242383998228
H         2.06351887951532    4.96333554658594    1.03112073573522
H        -0.81060260540378    5.09697086204327   -0.26016982574256
H        -0.51209466897375    6.77997240457471   -0.64559100755173
H        -1.94630973831561    6.32762754804759    0.25211400560512
H        -1.15229852940812    8.41531503978177    2.43750491565656
H         0.30642484407911    8.81317568103643    1.55557002655486
H         0.39458651941121    8.33731733911676    3.24132693599090

