29
CSD_code = MEGHOY | q = 0 | S = 0 | Stoichiometry = C12H12N4Pd | MND = 4
Pd        7.46560348069299    7.60608144542860    5.92859078315892
N         7.26029783788028    5.54789557148530    5.13992258805091
C         7.40039357434236    4.36096471995610    5.70108443010671
H         7.65087108007971    4.35303518688506    6.75469565535199
C         6.78416664297110    6.83826756290834    3.15466792833293
N         6.29480478284253    5.58672809162807    1.12761183391293
C         7.24073106130932    3.15549835400004    5.00614515125527
H         7.37134295594133    2.22257711936386    5.53213750612507
C         6.94833338552581    5.58835934047818    3.82843050875355
C         6.76361773657226    4.42330605079081    3.04307384885948
N         6.94562631477593    8.00345456393263    3.81438078802876
C         6.77463862885309    9.12238718217471    3.13461668365825
H         6.90852416811554   10.04540101242791    3.68505150298306
C         6.44871703282060    6.77041223881589    1.77950052631130
C         6.27398798048357    7.98100932067393    1.08213124176191
H         6.01839112022053    7.95026585531937    0.03524653812691
C         6.91951844488264    3.17260862238517    3.67062737110530
H         6.78309758581913    2.27457877984955    3.08994964899382
N         6.44456945527639    4.48151455046366    1.72224116043100
C         7.63115995556236    9.56098977407240    6.45646018385736
H         8.38683028792873    9.99382265743695    5.77977983532113
H         7.90995243546826    9.80873257391531    7.48105082494049
H         6.65161227213803   10.02094323145570    6.24501096485262
C         6.43908159883380    9.15548372897948    1.77526048971990
H         6.31499750468486   10.10908826997090    1.28606767913904
C         7.91268418728931    7.04025146538237    7.82802540065993
H         7.06891832765177    6.41395728144085    8.16309516424265
H         8.08509536982261    7.81013770166620    8.58076122690436
H         8.81963479120862    6.41694774669283    7.75848253506134

