84
CSD_code = MEGKOZ | q = 0 | S = 0 | Stoichiometry = C36H39N3OS4Zn | MND = 5
Zn        5.63331321273723    2.34361086748080    5.83922670208023
S         4.94121572440789    0.82237717849186    3.95741912902319
S         7.33276082403531    0.56418067463540    5.63794404842279
S         6.43683811012172    3.62374618427376    7.88724476028557
S         3.94680620005363    2.08763733412814    7.59317486570825
C         6.22273629726840   -0.13143768850262    4.53915622209074
N         6.38248525825508   -1.38672936223560    4.13200112438594
C         7.43276395344770   -2.25098220819034    4.63920544384778
H         8.18351692734510   -1.62848752588785    5.13183781698858
H         7.89608929046060   -2.75857597886259    3.78756148147376
C         6.87098226120997   -3.25526477827721    5.61364084900924
C         6.18892871617491   -2.81474295421052    6.74198915561840
H         6.08611272646684   -1.75496159902159    6.92127331627684
C         5.64684501579518   -3.72358853598431    7.63151093800553
H         5.11327357664729   -3.37083371608603    8.50192811178682
C         5.78476140555288   -5.08321242495594    7.40519990461166
H         5.36192499968623   -5.79376975652782    8.10002647827535
C         6.46572902179472   -5.52910254225839    6.28586242926212
H         6.57607813581209   -6.58843251015723    6.10521851749808
C         7.00207748283151   -4.61869503567724    5.39111786825804
H         7.53159102606012   -4.96910740409991    4.51588125508440
C         5.46788394933408   -2.03624922770609    3.20991595656390
H         4.59384157927542   -1.39232197313182    3.08644041082158
H         5.15472966845267   -2.98663157920206    3.65426312791827
C         6.13605171192118   -2.26925371277147    1.88055290718112
C         6.39350559623182   -3.55415924449708    1.42372341233929
H         6.08515853690920   -4.40426619187214    2.01650180825180
C         7.03369879144009   -3.75102367079759    0.21189608437236
H         7.22689660900617   -4.75487521597486   -0.13718766253886
C         7.42855767980820   -2.66405466153776   -0.54829267703457
H         7.93029657981385   -2.81767925517146   -1.49225092900117
C         7.17710681288097   -1.37877255822163   -0.09637193244721
H         7.48187671972116   -0.52860383973708   -0.68875730540047
C         6.53377239762915   -1.18214231679379    1.11149204817562
H         6.33003284373492   -0.18286213286199    1.46720280041293
C         5.06015098976920    2.92432740457977    8.59012093404256
N         4.82519296995988    3.03822174176784    9.89402183483036
C         5.72003896326758    3.74283417958757   10.79303280752578
H         6.65119044527531    3.94580520072513   10.25780619788128
H         5.93287417655422    3.08964667097739   11.64529746320949
C         5.09805046775684    5.03348716367334   11.25833921575193
C         4.71786941628018    5.98939467642219   10.32371449977721
H         4.89322817152705    5.80046505680059    9.27492349375435
C         4.12630985273724    7.17019778156197   10.73219385565322
H         3.83433426535589    7.90776396868451    9.99906607177567
C         3.91088030181580    7.40898182302908   12.07973632132245
H         3.45036010315595    8.33211612842758   12.39930835163393
C         4.28819362648366    6.46200362037332   13.01576374325928
H         4.12209975873166    6.64394564501279   14.06750846986977
C         4.87514549318151    5.27669927439544   12.60614502652743
H         5.16770278497051    4.53715800109588   13.33858253461739
C         3.68391300078390    2.42559074438678   10.54942604505161
H         2.95755394873623    2.14141558879802    9.78455657370116
H         3.23151753857456    3.17235524583006   11.20940009972404
C         4.11088663055081    1.21251870167360   11.33645023608022
C         3.92601979806174    1.15004861201810   12.71034850315877
H         3.45145425122843    1.97477893646560   13.22408111197666
C         4.33905283803526    0.03682369268645   13.42261881280953
H         4.18695618736677   -0.00399049182853   14.49135544641148
C         4.95050540694755   -1.01811677674103   12.76791047797700
H         5.27635340293250   -1.88449256459674   13.32442012343015
C         5.14327868349014   -0.95979158735310   11.39735344652950
H         5.62335314384159   -1.77961196535422   10.88332034835504
C         4.72377651170495    0.14832798003380   10.68511828957975
H         4.86828346063807    0.19242328893870    9.61601792984568
N         5.67175539231695    4.10776331623391    4.69302934094581
C         6.73541525170656    4.61529867051170    4.20807724481324
O         6.59828260936075    5.76446429876952    3.55083942789414
C         5.21630971215172    6.11568923781734    3.58391380234095
H         4.84723578647826    6.16755382127483    2.55638371321064
H         5.11973820726008    7.09647765273824    4.05554097738731
C         4.53981425325315    4.98441254450169    4.40580353287996
C         8.09353336779692    4.04343433174570    4.33057296433815
H         8.38217471960149    4.03001825113015    5.38136310102745
H         8.79898373647615    4.64224707940331    3.76230811932729
H         8.10190664639466    3.01526398856835    3.97388584603328
C         3.95283164076948    5.50290386943072    5.71685039932441
H         3.54328632456056    4.67449156225919    6.29022959083654
H         3.15579747287304    6.21362345025351    5.51290493502447
H         4.72423686454708    5.98781495223496    6.31243232536820
C         3.48740635077728    4.22733299115160    3.60231008390821
H         3.92332742682469    3.81159933891538    2.69669533421309
H         2.67138762608914    4.89438601783387    3.33609404454168
H         3.09381037805892    3.40526424302945    4.19487848278782

