69
CSD_code = MEGLUH | q = 1 | S = 0 | Stoichiometry = C36H27IrN5(1+) | MND = 6
C         1.89932103448262    7.98942332886884    4.65761583935437
H         1.45156803469588    8.31498689080320    3.73010901503235
C         2.13152077330599    8.90621021436643    5.67117901009458
H         1.86253829238231    9.94284090282549    5.53802932381021
Ir        3.20907567116522    4.28888701997134    6.58509607676850
N         1.31728264314397    4.03262527860704    7.77164169713701
N         4.32685291169353    1.43947949735761    7.65717656058623
N         3.92660854395982    5.29644199499556    8.22252646631088
C         4.91350453963426    4.40122499163156    5.50765335821305
N         2.42215936367765    2.11121712833102    8.39194471165981
C         0.29392286566005    4.87472378863373    7.84506681937192
H         0.35615526800282    5.74490203207440    7.20675776118008
C         0.25795744072134    2.63864982331042    9.39798962253918
H         0.26640709339961    1.74458197303664    9.99860396733412
C        -0.78877725617659    4.66437762764036    8.67911124802487
H        -1.59881385958338    5.37360865944066    8.70892805903610
C         5.49802194897146    1.24218676557242    5.54488114919789
H         4.54564344465082    1.21139721656036    5.03895358906022
N         2.55307213114749    3.51680321174122    4.83311514065404
C         4.77007240298647    3.98303337098267    4.16718491220698
C         1.30718666366790    2.93274854254365    8.53217768203844
C         7.89560020269860    1.19021798055889    5.50295909315768
H         8.81754526766471    1.12989488755379    4.94652035244973
C         1.30829812340892    3.09459526179339    4.60505483955813
H         0.62509961885715    3.11556885858251    5.44393628988997
C         3.70281885218107    6.63216065277655    8.21862287549240
C         6.68255975398696    1.16234919441348    4.83621552552755
H         6.65676946190590    1.07404901677722    3.76186666810511
C         3.06116655685877    3.07819306390422    2.53778117497765
H         3.77732673918482    3.08895475451807    1.73324745062315
C         5.53756358820205    1.34807402982095    6.92705951679149
C         0.87232487822646    2.65149595125745    3.37337428341039
H        -0.14609668282649    2.32362572739808    3.24483092030510
C         6.17293335954959    4.80860805787997    5.92935859059924
H         6.32805436206823    5.13567412087872    6.94795037007911
C         3.44224533740308    3.51653745555807    3.80763712882395
C         6.74908485143486    1.36281021350057    7.60271604483613
H         6.76749296819884    1.44061143890734    8.67998321034757
C         7.25264164971301    4.80896153622021    5.06213035699312
H         8.22220089005121    5.12777582933035    5.41472128925740
C         5.85844429591114    4.00094229634154    3.29385888075120
H         5.74327119036768    3.69136457345352    2.26646710563501
C        -0.80373808049321    3.52279198658417    9.46923830186485
H        -1.63099688613169    3.32150192521697   10.13147066656178
C         4.55788570476226    4.75600359018161    9.26625992866444
H         4.75031540696336    3.69291242195000    9.22187329515275
C         4.09878504947223    7.42092521093877    9.30278813480037
H         3.91287655808631    8.48169277589748    9.28712195783126
C         1.77109541147139    2.64522649966254    2.31281517443208
H         1.46412665323619    2.31094314978889    1.33431729806650
C         4.97747731824583    5.48057603662281   10.36222767671750
H         5.48444211874939    4.98877845564156   11.17612978416620
C         3.41387451456810    2.40692296513791    7.49756481076218
C         2.73542480651155    0.96536338314398    9.09185898712677
H         2.10973752501098    0.53824799343632    9.84609084155628
C         2.82025492615932    6.19523299729979    6.00421230928087
C         3.93580451549042    0.55142321401310    8.63187743221303
H         4.52954287155021   -0.29716282655294    8.90234995721297
C         7.92836485567000    1.28705497778909    6.88378483361457
H         8.87305181943669    1.30305331700474    7.40443366531956
C         3.06184367312519    7.14598782526314    7.01920124958487
C         7.09517984046011    4.41257393008877    3.74277037676508
H         7.93833696819716    4.42696596810229    3.06954391909158
C         2.23805890896472    6.65657721767840    4.82818984435691
H         2.04372439590384    5.97383622157718    4.01178304933510
C         2.71441703262959    8.48819374276131    6.84881509758146
H         2.89295301264161    9.20877610688726    7.63221591186563
C         4.73449729078029    6.84872855449624   10.38324190895746
H         5.04533857190309    7.45045719866939   11.22288960989656

