66
CSD_code = MEGTEX | q = 0 | S = 0 | Stoichiometry = C31H27MnO5P2 | MND = 6
Mn        0.15604359224463    2.72856963067127    3.93352193482235
C         0.25252495963934    3.66220705767830    2.43516431692945
O         0.23677817377656    4.24086726899591    1.43357737324568
C        -0.93040083346228    1.50499033576055    3.06371360573273
O        -1.56693889235838    1.13345388334327    2.17764298016515
C        -1.35124860988932    3.58437990397760    4.30421147902164
O        -2.34770666824208    4.14074002124092    4.46509042454632
C        -0.57535406941543    0.43824082095873    5.46552648995758
H        -0.61566272746789   -0.26914132275718    6.32486807951659
O         0.13616305272321    1.44378836852254    5.62226646874541
O        -1.23120009938982    0.15014368546407    4.45881978019720
P         1.38741753574888    4.07196674901290    5.31194599737427
C         2.71856623071702    3.30343410091857    6.33407735020018
H         3.21833059103822    4.11379527933232    6.87820885692404
H         2.19606436322724    2.68143941490331    7.07027878985423
C         3.72688813125259    2.45485678365075    5.56207748952412
H         4.13964829274090    3.02110770788435    4.72044068140891
H         4.55603300716815    2.20475844936472    6.23279749114812
C         3.11048266563992    1.16109256052276    5.03773617801961
H         2.52863593708317    0.68092178252559    5.82938665271387
H         3.89685166753773    0.47381428294515    4.70229450000973
P         2.01137806012915    1.46572553034195    3.58520057572315
C         0.48807742118014    4.87498964458464    6.68411346175768
C         0.83806254873043    6.13501681249186    7.15936005768912
H         1.63973752485206    6.68815082561852    6.69036835790848
C         0.14949195384892    6.68797201000225    8.22401894992949
H         0.42023766439842    7.66999572650987    8.58362371491999
C        -0.88526930776084    5.99034621588351    8.82499358837230
H        -1.42258112121726    6.42847758484935    9.65302907719895
C        -1.23115591097652    4.73163996107925    8.36159438962342
H        -2.03729870194542    4.18514988353246    8.82857083744042
C        -0.54802745546467    4.17619789118040    7.29560947565419
H        -0.81647651437711    3.19404154034533    6.92962033845839
C         2.16597454993216    5.52325271836154    4.53274043848177
C         1.29076415594388    6.32955726401128    3.80472246678166
H         0.24102653719279    6.05723848436496    3.76625875969515
C         1.75462104529720    7.44990480319064    3.14486207306167
H         1.07012320486990    8.06808553446465    2.58397588888704
C         3.10263692506932    7.77235388195726    3.19729897681225
H         3.47147732615131    8.64201719578758    2.67409944320409
C         3.97544028425610    6.97827642600886    3.92035303419791
H         5.02534449092997    7.22987861900038    3.96459757146430
C         3.51313328499983    5.85743407021208    4.59077516557621
H         4.21137934283208    5.25419178878946    5.15167403140960
C         1.62379518268866   -0.21200404584265    3.00978453820859
C         1.65677977797620   -1.34729005316765    3.80927984521215
H         1.98738214493203   -1.29002739883593    4.83695749050112
C         1.25182283723734   -2.56569609636142    3.29059050202845
H         1.27342833368593   -3.44595957588375    3.91687927404241
C         0.81147487938700   -2.65698368050751    1.98211183705659
H         0.48911491284674   -3.60903607424349    1.58742581014470
C         0.77200692757837   -1.52512229673209    1.18194889520550
H         0.41856183553070   -1.59206674175075    0.16397693505240
C         1.16969520565440   -0.30732360563165    1.69431344567172
H         1.12736971112841    0.58999402961550    1.08686244483331
C         3.29806877247729    1.95630638831870    2.38735818436972
C         4.18070139440752    1.01933867255352    1.85769729165115
H         4.06910418941655   -0.02759596031413    2.10685545273822
C         5.18846935536836    1.42494084014276    1.00328913599164
H         5.86719747889285    0.69368329917298    0.58896845969609
C         5.32998382088718    2.76513202928206    0.67741790687885
H         6.11884623930022    3.07634100061371    0.00874296551128
C         4.45770551345167    3.70164994374753    1.20535923179416
H         4.56096017540957    4.74702029456712    0.95438025445340
C         3.44360554373333    3.29766126001117    2.05560453686809
H         2.75291215882020    4.02511659376570    2.46328796778004

