14
CSD_code = MEGUHG | q = 1 | S = 0 | Stoichiometry = C7HgN5O(1+) | MND = 2
Hg        1.21362181638792    2.34372506834992    6.89866010268004
C         1.33433902009513    0.39967319601632    7.81700361966471
C        -2.29711333236705    2.16620522601163    1.92090219310733
C        -1.45346125786891    4.09272692595223    2.55738663080662
C        -0.82562889892008    3.47166996540891    3.64326141473252
C        -0.99932083120170    2.01023375574239    3.97271905453223
C         0.68988827440033    4.14731383723261    5.44980309860077
C        -1.23114629091618    6.56642502169481    2.18681304366772
N        -1.93494439124513    1.49858419899302    3.12231162653559
N        -2.31039339284696    0.86118583233125    1.95264329414559
N        -2.16307957382541    3.38994276252751    1.62991746289709
N        -0.00630058203087    4.07035192462846    4.51358518256158
N        -1.33501655843079    5.41345276682429    2.35798701044290
O        -0.46954400123264    1.45790951828860    4.90400626562382

