33
CSD_code = MEGWEB | q = 0 | S = 0 | Stoichiometry = C11H16Br2N2OZn | MND = 4
Zn       11.41883770031989    7.78427007083174   13.85196030643638
Br       12.69034994456249    5.72272058336909   13.67597772511557
Br        9.84824993705643    7.68571372963236   12.00025016189709
O        11.97753549799314    9.43923839761965   14.37729841609400
N        10.28779671708346    7.33369538149453   15.49919355549080
N         9.75068721121850    4.61591358514214   12.93923764161302
H        10.71467590095788    4.77876179208308   13.33226335464492
H         9.53320194038046    5.51561656017839   12.43496175160636
C        10.60289844881073    9.59645219470227   16.34403367853227
C        11.50486011202015   10.11577824805470   15.36457219348756
C        11.91963325860574   11.46409141077827   15.50626723997103
H        12.60320144696406   11.84409436483934   14.76155311108249
C        11.47288174650562   12.25482266287705   16.52726343927118
H        11.80438170280046   13.28085633365898   16.59783212319312
C        10.58944169456397   11.74503829378954   17.48575510280561
H        10.24176894913276   12.37343054676590   18.29113686719623
C        10.17854041663628   10.44525664475448   17.39021156019951
H         9.49811508508280   10.03998063696335   18.12755231321120
C        10.11890982274724    8.26232153274978   16.37738792602265
H         9.54148562379074    8.01028346714535   17.27569128808764
C         9.74635028402968    6.02080323132990   15.78436731392649
H         9.42643114818733    5.97217820707075   16.83271383722630
H        10.55501383517950    5.29506315646302   15.65253130652691
C         8.56059900348911    5.66394875966727   14.86121844040770
H         8.35040985719097    6.50600450028876   14.20032688943915
H         7.67053048940994    5.50912553176471   15.47027589397168
C         8.76684038525700    4.40862312900257   14.01635412265850
H         9.10191605752887    3.57700675196616   14.64126010741478
H         7.81559112143443    4.13705897274914   13.55224905120549
C         9.83403833300897    3.51493583855324   11.97647393014896
H        10.09899272490703    2.59150439483481   12.48701347452165
H        10.60363457633773    3.74421416661828   11.24456222675874
H         8.88129902681609    3.38909692225221   11.46665364983568

