34
CSD_code = MEGXEC | q = 0 | S = 0 | Stoichiometry = C11H17Br2N3Zn | MND = 5
Zn        1.16296086598264    0.28142770329292    2.84890964113369
Br        1.79763643481500    1.44442590917931    4.83138038121153
Br        2.41713737002781   -1.30600588994354    1.53597303599495
N        -0.06120067330643   -1.44584788202338    3.65183099235060
N        -0.93186322792671    1.02868131971166    2.99791698929300
N         1.49429993547995    1.99883164678638    1.27412008386304
C         0.36756366156481   -2.66073454227581    3.93608598004960
H         1.42713479880828   -2.83800639587093    3.81286602845966
C        -0.48252878756515   -3.67332181008102    4.36120418263879
H        -0.08747907177846   -4.65101103896324    4.58404437373065
C        -1.83450546989609   -3.39745785449441    4.48752107314399
H        -2.52651481705299   -4.16042989363716    4.81072557180483
C        -2.28443853148254   -2.12075858445741    4.19463317763301
H        -3.32821875148758   -1.86075463891905    4.28184545866758
C        -1.36034507609519   -1.16634529477679    3.77557008841232
C        -1.75073123867173    0.20491310489879    3.49794446311969
H        -2.76339868724195    0.49854748543460    3.79113737585335
C        -1.27496996543207    2.41362820111800    2.90581885767412
H        -0.78479702728781    2.90632115286901    3.75481712344451
H        -2.36065349856952    2.55683532920498    3.01037959378971
C        -0.77671404872333    3.06431293139425    1.61775046011695
H        -1.21410427635899    4.06338653149973    1.57016954768093
H        -1.14456496011686    2.50291184363585    0.75849313898420
C         0.74122603704720    3.22508139036143    1.55971947147053
H         0.98172283673587    3.97899616520819    0.79207451050340
H         1.08578060074242    3.60875807639512    2.52398653047380
C         1.22551331103273    1.54297378462114   -0.08962920837465
H         1.39491834815060    2.34850980520242   -0.81499519171440
H         0.20009628697011    1.19110097304127   -0.18225469608352
H         1.88571738387201    0.71419235146305   -0.33429472217583
C         2.92154095193487    2.32223932416563    1.37006767683342
H         3.51645510341507    1.43778604114270    1.14879187570622
H         3.16169916873507    2.66239762376638    2.37651010353799
H         3.19502501367898    3.11131513104998    0.65908603077242

