56
CSD_code = MEGYEE | q = 0 | S = 0 | Stoichiometry = C24H29NSiZr | MND = 13
Zr        1.49963159615969    6.99470358771358    7.20380169218467
Si       -2.31522941173487    6.66970583139716    3.65363466723817
N        -0.16290178674763    8.08015970761737    8.05575298999194
C         0.44065852799804    4.80900949683219    8.06946525912124
H        -0.62541309841885    4.64343014554759    8.16543752012199
C         1.31375107641050    5.26854367698096    9.07508480801744
H         1.04911989677605    5.48713393209701   10.10310672810548
C         2.63152056681196    5.21787292628608    8.56803718872116
H         3.53211343631972    5.38233819977670    9.14937006447175
C         2.57007114660430    4.70319994062710    7.25365711124822
H         3.41458810536334    4.40742588483948    6.64231329661578
C         1.21814467354034    4.45500204440403    6.94574757119698
H         0.84831327808731    3.96365213155656    6.05444025995336
C         2.69101076783831    9.24209803973229    6.91749724580930
H         2.31257700879579   10.19337139301183    7.27129443826883
C         3.57561676009167    8.39951980382562    7.62670186285016
H         3.99409765078677    8.60561204809258    8.60514135029231
C         3.97372114175134    7.36200851136551    6.75944019968957
H         4.76408518355705    6.64802536925643    6.95520861371887
C         3.30901951053059    7.53764384722865    5.52931523373077
H         3.48105704792540    6.96928762679610    4.62204014401912
C         2.52210095724080    8.71050591706584    5.62527218155349
H         1.99522018092394    9.18050520238432    4.80419532536567
C         0.72857242009269    8.16327837468212    8.98107647549618
H         0.41879419652865    8.74300252807685    9.88725732553533
C        -1.48625064803562    8.57861093851125    8.09094563289924
C        -2.41625471961329    8.10525287926608    9.02455981554423
C        -3.71712993290385    8.58995694566454    8.97850419145006
H        -4.43743459676966    8.22127395057165    9.69459142815117
C        -4.09714166839370    9.52985135144808    8.04104757751992
H        -5.11180734505614    9.89802291662975    8.02257911402366
C        -3.17144342591445    9.99404558182426    7.12239023674918
H        -3.46526078916127   10.72855359392300    6.38635349226068
C        -1.86850496921074    9.52535542320581    7.12894539700582
C        -2.04743468595143    7.08195895952854   10.06001041887088
H        -1.73654919276171    7.56952634053386   10.98530113338411
H        -1.22967668683083    6.45178153571138    9.71250576030191
H        -2.90629909994119    6.45427436161910   10.28917421819132
C        -0.86230818583757   10.02218126373928    6.13627028239145
H        -0.04704614033962   10.53935875429898    6.64470492880219
H        -1.32727386176682   10.71252598359234    5.43680053111894
H        -0.44523611411452    9.17351628084671    5.58454181112727
C         0.14111804064768    6.76738327150943    5.48999991488190
C        -0.81821349056184    6.69322442686279    4.73902367708495
C        -2.51186260326540    4.97253819312750    2.79718985217803
H        -1.65455554524688    4.74423040619050    2.17055424308663
H        -3.39594026730177    4.94826285066361    2.16579298139045
H        -2.60658440012045    4.17281972857294    3.52608042744943
C        -2.16428474976462    8.02912923822922    2.31667055757542
H        -2.08976768640850    9.01543408950090    2.76546314114030
H        -3.02675459559575    8.03253751982036    1.65572359480371
H        -1.28075895536987    7.88119836885515    1.70242314990234
C        -3.84668590791693    7.02034759301883    4.74156796233577
H        -3.98657831907432    6.23819645900836    5.48215013954833
H        -4.75572520786126    7.08089686191702    4.14947816700848
H        -3.73749508275800    7.95691776461207    5.28086666850900

