97
CSD_code = MEGZUV | q = 0 | S = 0 | Stoichiometry = C43H40N6NiO5S2 | MND = 4
Ni       14.48672463150228   13.95031664038973   11.15469494960755
O        15.81291030900158   14.01057186670523    9.86308146735801
C        17.02511022671682   14.45286328618046    9.97618268194617
C        17.82549302790518   14.55212191154884    8.81407532960648
H        17.40935884150332   14.19939442561371    7.88219399518317
C        19.09737082861858   15.05808515760101    8.87070982498776
H        19.68236334091313   15.12648416315994    7.96584823944311
C        19.64904927332386   15.48321455869584   10.08371838878056
H        20.65079767387109   15.88389051899809   10.11123022662889
C        18.91439563116077   15.36724680815720   11.23358108974659
H        19.33858212598896   15.66257353018258   12.18414332680369
C        17.60605030088858   14.84863134707024   11.21802881948251
C        16.91124551017118   14.66569498233742   12.44304695219430
H        17.45762024716893   14.93748262167324   13.34522545670453
N        15.71381848323933   14.17581616217771   12.55584253992229
C        15.13074603488880   13.89054318293218   13.79320735047695
C        15.80511345818814   13.77310343480779   15.00602136486256
H        16.88025545376414   13.85982106654200   15.05220146173392
C        15.09175671028351   13.51912388289537   16.16052544092983
H        15.61231293750916   13.42751099613746   17.10177448633842
C        13.71150820716931   13.37076964413479   16.11193304648306
H        13.16387018921212   13.16832506629542   17.02026004907701
C        13.03068800200274   13.45575443774579   14.91432571422191
H        11.96250175879067   13.32497453778537   14.86896200274618
C        13.73324524377538   13.70220713195839   13.73475957587563
N        13.16096167914971   13.79422459077876   12.48229385220457
S        11.87345991939180   14.81028860276254   12.42088810496489
O        10.81716256094059   14.43454464267973   13.31883274619033
O        11.47590344668866   14.95081317742669   11.03341917797899
C        12.69086348453896   16.27581053476256   13.06351421208793
C        12.47767147897758   16.54407456402121   14.38748148674706
H        11.62186651706458   16.10490014375771   14.87444593684147
C        13.39607122486746   17.32353901012497   15.09957657353404
H        13.24478741222092   17.49208930414165   16.15472879293210
C        14.51189347093794   17.81064348758292   14.47289065537377
H        15.26468640214935   18.32662241127358   15.04706022151524
C        14.72724992609193   17.60993854047626   13.09371319921709
C        15.87931284363197   18.12691204984332   12.41963813104728
C        16.10655488486869   17.76085946357668   11.10758424039340
H        16.98290366321685   18.11248868715173   10.58708212992838
C        15.17859761478603   16.99586494340994   10.39879733375088
H        15.35007348428313   16.81882705172488    9.34729383067761
C        14.03680248056857   16.51995313406888   11.00121406489710
H        13.23829702219719   16.08360261668916   10.41384400358076
C        13.80403161972216   16.80187436752804   12.37167191484804
N        16.75891781786803   18.94577381260551   13.12801702921631
C        18.11785108153951   19.04792241200344   12.64898721674261
H        18.22653842733666   19.73216150240909   11.79636751470820
H        18.47950468555630   18.06294011003517   12.36252062656385
H        18.73516215089045   19.42608562538548   13.46547730866066
C        16.25429321788498   20.21972125502221   13.60367175856149
H        15.17888126209067   20.17587992627496   13.74988174316949
H        16.46869690770288   21.01825523440939   12.88061656045100
H        16.73637991432301   20.47792217050848   14.54919963341399
N        13.21674682848257   13.31015693291960    9.72432080452945
H        12.34842115331113   13.80810794161583    9.97319801135543
H        13.54913740832020   13.61125490440081    8.80647537173920
C        13.00020476766395   11.90270354278843    9.73937980611907
C        11.88208726112722   11.37657411563560   10.37071286768716
H        11.20951814082898   12.04999608968899   10.88241324149673
C        11.63591325896105   10.01529043084260   10.34100634524575
H        10.76295505240395    9.61566575494508   10.83288800720177
C        12.50117201055270    9.17690263988773    9.65886599770612
H        12.30352680868326    8.11692898975790    9.61105121573489
C        13.63145126216254    9.68533957951837    9.04252964007661
H        14.30399767400337    9.03325712716930    8.51200105954173
C        13.90822952800934   11.04583758734361    9.09040546428128
N        15.04557523602662   11.58171955288532    8.50518897934988
H        15.38501681205188   12.46521036838219    8.87955547182808
S        16.04494542598118   10.84479892920204    7.40069664484720
O        16.96227824471828   11.87762293837882    7.01043282343119
O        15.23580446822163   10.24304720515731    6.38173540097999
C        16.90072554289350    9.53259474621364    8.27334273041414
C        16.68268694317483    8.25924695275251    7.83039237522402
H        16.05533895610911    8.11018166852861    6.96527389467566
C        17.24002905043067    7.17696424261035    8.52157659187588
H        17.02079652946658    6.16992921131869    8.20149458694044
C        18.04201514670302    7.40120403754383    9.60899783008850
H        18.42814721885376    6.56563821960981   10.17085939552415
C        18.34394213805937    8.70791285501138   10.04247222023992
C        19.20245973363333    8.96010769288545   11.15852986212338
C        19.30088306225780   10.24942694127040   11.64218223976837
H        19.90965553542162   10.46069921467845   12.50709264170371
C        18.67409012204863   11.31578153180365   10.99163732051429
H        18.81510455112811   12.31742059131086   11.37018265084185
C        17.92874464410139   11.11443825682557    9.86309058536324
H        17.51328699909522   11.94229853837998    9.31930573961367
C        17.72405552587886    9.80826244039493    9.38273167442393
N        19.86237542943995    7.88129218829578   11.74810958182064
C        20.82755561872288    7.16525281771620   10.93644812929575
H        21.83954587999350    7.56414829913261   11.08988053962536
H        20.58433369482911    7.25672992335828    9.88180745989132
H        20.83190194623412    6.10921470537113   11.21492589290690
C        20.30376578510516    8.02093400141727   13.11568306476032
H        21.21903009119236    8.62061443454761   13.21752611144568
H        20.50890541586641    7.02364801082194   13.50722763544875
H        19.51127805095430    8.47028911761871   13.71038831141305

