49
CSD_code = MEGZUU | q = 1 | S = 0 | Stoichiometry = C13H29N2NiO4(1+) | MND = 6
C         5.30491118085585    8.47438127483757   10.66154896901402
H         4.76093121749380    8.99770164491888   11.45455350132683
H         5.55671958750121    9.18336907914307    9.87216177029121
C         6.56432447034758    7.80689274756436   11.22060088252110
H         7.19857096803464    8.56168580646036   11.70465647469473
H         6.26635711797473    7.07796696854223   11.98106814155203
C         8.18933872715377    8.02543431383034    9.46694810315417
H         7.64228642913239    8.88008589835381    9.07521649720111
H         8.67015673839232    7.51201715616963    8.63601001727076
H         8.96646977495735    8.38846558982991   10.15258117675116
C         8.05947841405833    5.99052349841796   10.68388451958764
H         8.81832428994220    6.33879796681113   11.39617366787882
H         8.55716442506279    5.47869528787656    9.86308919786246
H         7.40696369959642    5.27560032699408   11.18103896862853
C         4.42958050793386    3.67790419888393    8.86845942214319
H         4.19871905983845    2.77980205523422    9.45042175239162
H         5.08707330721541    3.40929691330775    8.04101057413868
C         3.14437816932973    4.33361414394255    8.35594832052145
H         2.57221693550036    3.60930893473107    7.76069779201330
H         2.53190112069447    4.62307443492104    9.21589321312014
C         2.36490708902776    6.49501394724597    7.61918154145917
H         1.45189291203054    6.07186035392114    7.18112756568069
H         2.64560659275510    7.38258738514872    7.05628428154441
H         2.16017151440675    6.79646784334988    8.64451545193852
C         3.72584295322374    5.17919508399839    6.18592926378381
H         4.52842869145065    4.44777267817819    6.12313039860750
H         4.02362500926897    6.06805077876388    5.63230092849981
H         2.82710280623945    4.75753453646352    5.71654424182357
C         8.12824865171663    4.90144114389559    5.70629793809914
H         8.20545193456871    3.98779020423254    6.28872937964318
H         9.11654195315236    5.33358914198867    5.57176117318460
H         7.72487889407992    4.67102417543001    4.72272746539157
C         7.22556764219575    5.88615612139190    6.40585578092238
C         7.06929971464710    7.15256276288713    5.84320703034847
H         7.58357303441246    7.39949270127007    4.93134366973464
C         6.24994845973048    8.10079662950439    6.45593081498424
C         6.10959854032343    9.45179729913633    5.80126299213911
H         5.75429933361213    9.33416821860397    4.78062432571670
H         7.07884244418128    9.94400664781557    5.76540347062996
H         5.41102512840269   10.06669709424192    6.36143367600876
N         7.27556693157124    7.10268862426098   10.14520222618365
N         3.47255796185062    5.53909580576548    7.58335341510948
Ni        5.53360638257976    6.40615723089087    8.57668325780792
O         4.45704428486252    7.50933486113324   10.04315099839173
H         4.05316894815225    6.98278281882983   10.74395627029855
O         5.17960702371343    4.59445888151539    9.66175017466288
H         4.71909594506870    4.69808410016293   10.50352955022312
O         6.65811269770660    5.48665055616504    7.45966229802806
O         5.61742038404919    7.92112413303657    7.53235745709473

