63
CSD_code = MEGZOP | q = 0 | S = 0 | Stoichiometry = C25H27N3NiO6S | MND = 6
Ni       14.85588000305509   13.87420972132234    8.52980332184690
O        16.12190449234027   14.25308452726756    7.27239935943207
C        17.12453297499066   15.05426791451903    7.34615567755942
C        18.08853413131585   15.04156276114480    6.30781413855950
H        17.93255950174419   14.34473923240520    5.49833297624971
C        19.18320348552387   15.86355483693727    6.33562426882326
H        19.90468953350176   15.81953676364836    5.53253688381945
C        19.38228206316043   16.75682675955033    7.39302278909419
H        20.25137859516701   17.39611331410330    7.40368438499257
C        18.46458212917599   16.81044555483686    8.40837134764345
H        18.60352100032872   17.49944654455609    9.22972240478468
C        17.32553907838985   15.98532344865020    8.41275313726520
C        16.37314786632074   16.10237820347156    9.45856876758933
H        16.59386797354359   16.85179635851067   10.21692160073736
N        15.27753343968842   15.41277641906790    9.55214469928542
C        14.31968542691233   15.64189779088786   10.54038062677255
C        14.21246603358917   16.79514501035564   11.31406663312290
H        14.89731298380901   17.61828260400593   11.17430573656893
C        13.20441114311059   16.90227929691126   12.25179854432792
H        13.12161725669988   17.79737960776047   12.84927357167279
C        12.29358535129133   15.86668763374606   12.41857507343618
H        11.50480579191153   15.96142505604540   13.14994538328504
C        12.36749228762907   14.72531799898148   11.64683060755465
H        11.65172440063879   13.92947842115473   11.77221257156830
C        13.37951155261197   14.59610109168960   10.69312154819770
N        13.53127489944056   13.54006168375519    9.83980916629857
S        12.82809564749824   12.12565729471521   10.19369113158135
O        12.79172475150430   11.85434935775199   11.60241130177272
O        13.51235108951701   11.10712564114837    9.38961699843128
C        11.16086357702101   12.21477556812838    9.51781730850250
C        10.84847745799711   13.28273139657806    8.72578870714589
H        11.58866013954482   14.04379989108089    8.53087699049351
C         9.55730954202153   13.40097312256283    8.19355359673418
H         9.30046361708597   14.27718883998000    7.61814124447333
C         8.63158462788627   12.41720748697631    8.41326266952070
H         7.62746501147067   12.52879294194215    8.03594767543289
C         8.94994335055036   11.26676009174537    9.16335237746978
C         8.00801479875038   10.21282939306183    9.37532802109378
N         6.77814175116152   10.27905174147025    8.71293342478794
C         8.32543579061259    9.20759264808764   10.26491059441502
H         7.61795435125100    8.41963852780421   10.47050688429511
C         9.57810392127634    9.15806492214897   10.88481983833004
H         9.79429976742497    8.34012205954284   11.55589552090498
C        10.53351057250723   10.10169878528789   10.62624477062387
H        11.50805314262428   10.05242874540148   11.08033826346371
C        10.23321724166291   11.18331325824699    9.77601236927483
C         5.66584640220065    9.55677603900965    9.28396512018066
H         5.70191511568620    8.47583473144811    9.08814855268095
H         4.74755943443167    9.94836679261384    8.84362793505275
H         5.63477502262219    9.72632033299782   10.35822140135122
C         6.80503245622921   10.17645396010649    7.26661941007221
H         7.74272973188695   10.55930886644405    6.87392889221000
H         5.97725536669192   10.74946171806530    6.84327870229598
H         6.69934217184228    9.13137244107357    6.94359679971791
O        14.05199380736697   12.37169902663966    7.15924971897762
H        13.22478651469901   12.72538704723950    6.81864115711199
H        13.81674909641645   11.72172030497742    7.86025949204268
O        16.15042018433234   12.04904304766528    9.28403840209809
H        15.38850730450977   11.48885886533380    9.50705360622526
H        16.49423175792155   11.72353614259108    8.44547343410069
O        13.31496264952343   15.17559048846429    7.01913005898636
H        13.43785436921584   16.05915277480078    7.37878314955931
H        13.96682506905627   15.06249715162414    6.31625925806628

