38
CSD_code = MEGZIK | q = 0 | S = 0 | Stoichiometry = C10H24AuPS2 | MND = 4
Au       -2.74199972488590   13.57980409302597    7.80916577884868
S        -4.14424433416255   11.83391378024875    8.86768407001971
S        -1.44735083515239   11.63163914141416    6.98049317054668
P        -2.91005376748765   10.58462715300701    7.88379712193972
C        -5.91492301170115    9.29610897671112    5.27312129086198
H        -6.70497723246640    9.81940100701568    4.74038816020146
H        -6.37537494441066    8.63774808310375    6.00655416649279
H        -5.36354293295554    8.68772636301214    4.55851863615408
C        -1.58114456783871   14.98222313298996    6.91303365421780
H        -2.17276853860862   15.72181188868697    6.39194203808396
H        -0.93449627158754   14.48261193303877    6.20261148885485
H        -0.96754320918429   15.48452161636366    7.64888176527183
C        -3.83139553717473   15.14386856148888    8.50567235668398
H        -3.20396898983852   15.93091419705256    8.89918313528579
H        -4.47816433586870   14.78012912447841    9.29419031886835
H        -4.44400656462233   15.55173620888973    7.71255001116209
C        -2.18973470105415    9.29413148379252    8.99242379613099
H        -2.97876153432118    9.02015561953078    9.70062944357136
H        -1.97985120034185    8.43132699787371    8.35014204161572
C        -3.88312384658448    9.54900383583908    6.69888222462658
H        -3.16588422354945    9.10291395534776    6.00265267490147
H        -4.32337274850755    8.75191283637218    7.30912200981350
C        -0.92037307793316    9.72179936846904    9.72691429862598
H        -0.19937317859160   10.07926477805265    8.98183582406751
C        -4.98375348122610   10.29930184142701    5.95040540532502
H        -5.56214357488800   10.87585689011278    6.68312207385714
C        -0.32335389947474    8.51855441571045   10.45318096338325
H         0.59705813476252    8.80359216441698   10.95636751791144
H        -0.09660392403130    7.71562953234358    9.75494427213916
H        -1.02003951620358    8.14195175539987   11.19980793464570
C        -1.20739428162067   10.85305585156211   10.70680301679592
H        -1.58313363723453   11.72955560035633   10.18018385950055
H        -0.29857932773551   11.13829697014692   11.23146179437556
H        -1.95246796639674   10.54789918742653   11.43937267533211
C        -4.39912791803478   11.26153837275603    4.92283608789219
H        -3.80481624541953   10.72146175204903    4.18807962400866
H        -3.75993375650405   12.00076033695261    5.40354451144492
H        -5.19608129716760   11.78985119353522    4.40450078654719

