103
CSD_code = MEHBIN | q = 0 | S = 0 | Stoichiometry = C43H51Cl2N4O2Re | MND = 6
Re        0.88209999343364    9.29460951406109   19.94385426520363
Cl       -0.74387124666466    7.50223327187648   19.85731894528621
Cl        2.51902647300830   11.04130936617443   20.26148035060461
O         0.96914046891243    8.99894914907213   21.68965548186965
C         1.01867737274400    8.66235828544957   23.00864087194514
H         0.64932438039491    7.63668057051989   23.15078804864629
H         0.39953287625527    9.33757880964874   23.60768837647703
H         2.04898036310943    8.72533917949751   23.38228304158149
O         0.79542225862001    9.55951917168555   18.31069768566093
N         3.46479122196261    7.31244877343456   20.20565046043437
N         2.85532681938884    7.58686224549880   18.17521822166858
C         2.51777449630629    7.88770857427243   19.44275231043681
C         4.38748610779086    6.66230926231966   19.42649588819382
H         5.21651216832239    6.13651249399582   19.85448252974253
C         4.00120820486103    6.83804514295203   18.14540537076059
H         4.43042537460996    6.49956644424056   17.22455212975276
C         2.16993356846148    7.85443639132406   16.95461334686739
C         2.53042889020219    8.96500129517443   16.19246906209356
C         1.96105681300143    9.11053048331637   14.93733391367057
H         2.23997016021667    9.96091924310224   14.33393454899706
C         1.05159064741428    8.18849630633119   14.44242140771384
C         0.69634982325514    7.10667766197666   15.23449443534671
H        -0.01912992944635    6.38768753831095   14.86148833092807
C         1.25280929956090    6.91212056479925   16.48883001508717
C         3.48934600549835    9.97547178710154   16.73583621691634
H         3.66757931821086   10.76554107043676   16.01218592152641
H         4.44205067501585    9.51730348595694   17.00162260079809
H         3.06541375571089   10.41954537696920   17.63718962137449
C         0.47989956049225    8.32267160995362   13.06253282004382
H         0.75776538030898    9.27338144481859   12.61590939331351
H        -0.60575379357810    8.24395623472125   13.08550044288200
H         0.85403452271961    7.52188502033334   12.42416554259255
C         0.88288272356397    5.72159651935543   17.31641581018705
H         0.27864567581004    5.02757673236528   16.73868302354146
H         0.30240490564708    6.04305911864747   18.18157379583405
H         1.76897419088291    5.19875888497777   17.67613250518935
C         3.54635590229614    7.20809110366487   21.61967159780792
C         4.41329481204406    8.04307690175554   22.32184781283628
C         4.54896227883921    7.83868600385040   23.68969845944866
H         5.21132078114319    8.48283717637838   24.25028191855800
C         3.86222506320688    6.82727904698258   24.34451076282933
C         3.01244735553767    6.00760475053926   23.61153814892890
H         2.47565891046823    5.21661130322909   24.11567222670706
C         2.83914811148329    6.18098143472249   22.24732100978571
C         5.15956002924952    9.13122508592478   21.61938225767772
H         5.74406000644413    8.73289348234320   20.79036028749442
H         5.82956958887906    9.64254339922292   22.30522546148542
H         4.46137802712912    9.86347770825729   21.20813577981523
C         4.02310603995291    6.60987038845039   25.81852933082854
H         4.72271559031369    7.32406195512477   26.24478368075052
H         4.38957502016394    5.60310959465412   26.01511911257680
H         3.06367031817826    6.71852967588224   26.32303253843252
C         1.91521812749927    5.30617046129701   21.45825374820165
H         1.47627422370230    4.54034163680239   22.09224180699993
H         2.44515682111477    4.81849309536175   20.63962699741139
H         1.10740375719425    5.89611536969103   21.02195006281476
N        -1.60534561533251   11.06512176587113   21.09062017432942
N        -1.24254708532222   11.42290786480564   19.01445255215519
C        -0.76819308975582   10.75760543643569   20.08383280256919
C        -2.59617650931861   11.90906192641131   20.65751455658623
H        -3.35693564268506   12.27133700276459   21.31850646238435
C        -2.36546382973233   12.13247898364088   19.34680972913338
H        -2.88985344605631   12.72798148694580   18.62768585401680
C        -1.52121156070984   10.74012262040299   22.47061291994792
C        -0.73274550990815   11.54645297576823   23.29205888593187
C        -0.75351160112692   11.30568385174453   24.66017676751440
H        -0.14924470154803   11.92289192954955   25.30950349190967
C        -1.53021893790082   10.29262048950692   25.20456272937990
C        -2.29522502316365    9.50227251869674   24.35562277084066
H        -2.89772823748354    8.70842125879907   24.77310812014848
C        -2.31308643319241    9.71295182848458   22.98470612780442
C         0.12273018181938   12.62399814214517   22.70362235202462
H         0.61811926154834   13.19194797918012   23.48642723874459
H        -0.47150784550861   13.30846650628678   22.09797294994442
H         0.88845261735160   12.19064988250937   22.05768483062286
C        -1.55345387812313   10.04476822247607   26.68238283954387
H        -2.55457109274833   10.21470589897145   27.07723448264353
H        -0.86063735301266   10.70317588382214   27.19989973503743
H        -1.28251507117342    9.01224239781587   26.89829293100868
C        -3.14516917221148    8.86703831909164   22.07580686480150
H        -3.72844852619857    8.14947668012718   22.64635209416718
H        -3.82538752382596    9.48030537821421   21.48501653807168
H        -2.50767091034360    8.31860411732466   21.37938867346540
C        -0.70810395562834   11.54794904957798   17.69895671175858
C         0.17164707229966   12.59924083968480   17.43896592819414
C         0.57107828617700   12.80795830047984   16.12856985511446
H         1.25447979183425   13.61653012077959   15.91128404830803
C         0.09819946672789   12.01828767389283   15.09063475859768
C        -0.76676615789000   10.97529747224176   15.38359875934760
H        -1.13461869672874   10.34726525558448   14.58641950610522
C        -1.18113646337411   10.72028519685409   16.68154650702228
C         0.66485439576377   13.48135598439987   18.54244475721443
H         1.23111226954475   14.31665621022527   18.13979817879575
H         1.31807929000359   12.91163801358699   19.20380560907073
H        -0.16209185442240   13.87268085820682   19.13506712723045
C         0.50175349731087   12.32374195002456   13.67874703797473
H         1.58634855178084   12.33141865904851   13.58151861398709
H         0.13980819115952   13.31078341262554   13.39111349884689
H         0.08981630572396   11.59272352794284   12.98833219939689
C        -2.09351801949397    9.57907987131822   16.99862008590164
H        -1.57798336527125    8.88519447919020   17.66336033626426
H        -2.37424698912370    9.04726457491373   16.09418619718930
H        -2.99727537154873    9.92061060273221   17.50339507445095

