46
CSD_code = MEHGIR | q = 0 | S = 0 | Stoichiometry = C20H19Cl3HfN2O | MND = 6
Hf        0.85353400609891    2.06559964599319    2.82802627862362
Cl        1.49798549534551   -0.08096661878666    2.27887352418049
Cl        0.03085411350584    1.44958905873455    4.95698988402756
Cl        1.20722068899379    2.82234121251906    0.60892497788237
O         2.38300034560755    2.96499296558575    3.51111271617226
N        -1.21626535267202    1.77496323187651    2.06213069621252
N        -0.11498130233874    3.95972794371532    3.17933331355950
C        -1.71515789246053    0.68450315448318    1.52029616198947
H        -1.18307204196253   -0.23911498763227    1.72524335909145
C        -2.86411617559266    0.69267301382890    0.71605874162250
H        -3.22480517209309   -0.23290890974002    0.29718638391608
C        -3.49757137568140    1.88203176651327    0.47105365632724
H        -4.37882350339191    1.93043222162900   -0.15187782952897
C        -2.98845981858442    3.07173415360936    1.03379050379913
C        -1.82411965667380    2.96746508019029    1.83747732304819
C        -3.56496056736956    4.34013931452613    0.81654731206704
H        -4.44478063957841    4.41293917802284    0.19609511299211
C        -2.99882599812701    5.45708466134401    1.36951499145804
H        -3.42976238055987    6.42953630834508    1.18658767865877
C        -1.85469959826120    5.36635341203407    2.16995913966501
H        -1.41168763161045    6.26900653973952    2.56246251769359
C        -1.26329541592172    4.14350820108841    2.42638821663262
C         0.21850635803951    4.72143605882740    4.17485444182061
H        -0.45215671631680    5.52984716309404    4.48180810453359
C         1.37726250491400    4.54379459771188    4.97285539734923
C         1.49357351355923    5.31862398952162    6.14707122622822
H         0.72607296367753    6.04589605787622    6.36749262847900
C         2.54278727687707    5.13018170310768    7.00004017018967
H         2.63170577901439    5.71856643167219    7.89991037682304
C         3.49773060420790    4.14620740092623    6.72409003010314
H         4.28879252902883    4.00442606093365    7.44151454583735
C         3.45431664242061    3.36756768571971    5.58734062131788
C         2.39858815107683    3.58839271171288    4.65584148000657
C         4.46514346894141    2.26026851215919    5.31418968500277
C         5.24116499759306    2.56373827891421    4.02419530429403
H         4.57690073244257    2.60587761833769    3.16458578822438
H         5.97821683888966    1.78361752712837    3.84810722494754
H         5.75870993090971    3.51756130814129    4.11057648213666
C         3.70954918640135    0.92768086314214    5.18258305898150
H         3.09772783865753    0.75031220797703    6.06569604029012
H         4.41909361828551    0.10942481234185    5.08127907946567
H         3.05735984965342    0.91554882321350    4.30449079452437
C         5.48067398150165    2.11158609467309    6.45257489182101
H         6.07313374383639    3.01547448935074    6.57551627225748
H         6.16179163350369    1.29770056939868    6.21521766544614
H         4.98744444620827    1.87133848649392    7.39139402983132

