35
CSD_code = MEHHIS | q = 0 | S = 0 | Stoichiometry = C9H10N6O9Zn | MND = 6
Zn        6.77335083690556    3.38798763590957    2.61311668455011
O         8.28747133793906    9.63288904524904    2.21538047763458
O         7.26455066723037   10.47262227167708    0.41298765092799
O         8.11478067319287    2.67729182443465    1.36587971341623
O         9.31369399273015    4.17111355820182    2.30079567869299
O        10.12987869605366    2.96728286961999    0.73895881129149
O         5.90575362970448    1.73564528991532    3.24961391865759
O         4.96047452195110    3.60029861722877    3.62160701816617
O         4.02800604248841    1.79254945646324    4.24665623845875
O         5.50936715181154    3.11115225616472    0.81801368292361
N         7.64709088878853    3.80295028595286    4.42850013530527
N         6.81083536717511    5.37620017335621    2.39194334470201
N         6.42163326258596    6.27196535731279    1.57180571900252
N         6.54298309280482    7.44845582110759    2.16018684958535
N         9.22894733868411    3.28107462044323    1.46657726422227
N         4.93325558586307    2.36588523900463    3.71508947797812
C         8.13210142091066    2.97525527249677    5.33814733245528
C         8.73563435654423    3.42084143391878    6.50427724605178
C         8.82806069787113    4.78621867307190    6.72303400180132
C         8.32110055344584    5.65354930762327    5.77031555287292
C         7.73795844255080    5.12067501750023    4.62522408034383
C         7.21564519782049    5.94372636115007    3.55139858758294
C         7.04005232593798    7.30694049783265    3.40501880040602
C         6.20987800431567    8.65243191049720    1.46195115881484
C         7.39131896614450    9.62423512942745    1.42352767395856
H         8.03084107224008    1.92090504954215    5.11999910766583
H         9.12460103913301    2.71320649936177    7.21838378729747
H         8.00059083418312   11.10638667008489    0.38470565635924
H         9.29275498294577    5.17013154925556    7.61870053839326
H         8.38493583341844    6.72179859052131    5.89941635685168
H         7.23146331378861    8.13731409454452    4.04964566138771
H         5.37266105580666    9.16465210783099    1.95040929918458
H         5.91480373078604    8.38646369128077    0.44511565227555
H         5.87131654460949    3.63235234145504    0.09447311297055
H         5.70980854164116    2.18945148056078    0.61444372781411

