68
CSD_code = MEHHIT | q = 0 | S = 0 | Stoichiometry = C30H27Cl4N2OPPdS2 | MND = 4
C         5.41358769521779    3.40574776167248    7.78163445836694
C         5.32394853487359    4.31925323946712   10.04341753689796
H         4.29205080507406    4.53723138298125    9.76550876392758
H         5.82271761319776    5.24223281729213   10.35513969791690
C         5.37772186496117    3.29333915158446   11.17846007131003
H         4.86381030144008    3.68261782852893   12.05509982715491
H         4.85300830720530    2.38031089645645   10.84858289403049
C         7.44772927687950    2.43526488054795   10.35586380081077
H         6.99085735198679    1.48839334683681   10.02420155230233
H         8.49119856316873    2.25748305905193   10.61527724881833
C         7.39894467011391    3.44259032804602    9.19916137021164
H         7.92380940714101    4.35696078267121    9.49301519028958
H         7.86960502353114    3.02403079745701    8.30902068296290
C         7.09293337803122    2.59508901101276   12.78663925456902
C         7.86680476469868    1.46674368322377   13.04117875569814
H         8.18922354947983    0.82529600340535   12.23704590123944
C         8.21278610815602    1.14352310032539   14.34303136802125
H         8.81047116108086    0.26351332342009   14.52799195345356
C         7.79417287755792    1.91672735544226   15.40286454788283
H         8.05140484507922    1.67184301134529   16.42004566538234
C         7.01821779706616    3.05229638612404   15.16157046952153
C         6.67922338911415    3.38869800454240   13.86123946399164
H         6.10905607204393    4.28117708162593   13.65916410989945
C         5.87567772628903    4.92261288704839   16.09878775528158
H         6.39724916022044    5.67791433615271   15.50143118358477
H         5.70861142774337    5.31224540836681   17.10177482031950
H         4.90939816271236    4.69584636761575   15.63542119689840
C         0.81023193298655    3.85303529846856    5.19574301251491
C         0.42204727704115    3.36106692591842    6.44058853842104
H         0.93821377361316    2.50004732821282    6.84920217788165
C        -0.59438374559594    3.96774617832287    7.14865902257677
H        -0.89829389694668    3.59193037681848    8.11297515700674
C        -1.22230896227454    5.08198061634364    6.60712868901993
C        -0.84000489253864    5.58899006259094    5.37456187070932
H        -1.33537882884664    6.45928990159171    4.97308291657827
C         0.18020337511302    4.97429729324722    4.67053303260313
H         0.48697846908588    5.36810317867591    3.71197712282192
C         2.44943183596825    3.90332494576882    2.84629527129875
C         3.40770805048865    4.91340633501347    2.95269908391135
H         3.92470474750158    5.05788521190741    3.90984678679113
C         3.72409965828431    5.69631480938117    1.86216256680102
H         4.46716958033007    6.47504365287544    1.93339782365818
C         3.08338720617363    5.45546851418487    0.65282610963706
C         2.14667272162868    4.44119416475176    0.52855852296204
H         1.67700467131851    4.25697427412902   -0.42503808132134
C         1.82871142882416    3.66364172201025    1.62897026883599
H         1.11710084066869    2.85863315280287    1.52837423404514
C         1.45740723511325    1.35662239478250    4.08733580654530
C         0.22034145786036    1.18455473486970    3.47334129263974
H        -0.33998014329951    2.04468016204476    3.13498446834554
C        -0.30262077937711   -0.08465250720204    3.31479783923338
H        -1.25567914943975   -0.23031692299471    2.83056097696480
C         0.40536748858307   -1.17966922971781    3.79164957750774
C         1.62106542180976   -1.01868761202175    4.44189200017432
H         2.14782407218510   -1.87998339565092    4.82170895114931
C         2.14167116603047    0.25238831330885    4.59133281727344
H         3.10102148640532    0.40245739735313    5.10011701171557
Cl        4.79502187771966    1.93013901900099    3.41541615285155
Cl       -2.49304079229227    5.85074044289585    7.48510952298289
Cl        3.47290927116904    6.42382362670264   -0.72009128163594
Cl       -0.24869268334361   -2.76205268179496    3.58939818329371
N         6.02757277983201    3.78330268924610    8.90176977972372
N         6.76002305115446    3.00371665242325   11.49211877079447
O         6.65478517501847    3.76490445676542   16.26532782961679
P         2.19292122508920    2.98568506237194    4.38799595286572
Pd        4.16526890192236    2.79917757899093    5.41059264386117
S         3.74606679727378    3.69117737039153    7.52323564329024
S         6.22793106377803    2.63703627284405    6.50219239337349

