72
CSD_code = MEHHAL | q = 0 | S = 0 | Stoichiometry = C33H34Br2N2Ni | MND = 4
Br       -1.00428267009893    3.11485966472350    3.34738768952754
Br       -0.39015823872711    5.59523831131704    5.32658381090520
Ni        0.74120135545064    3.88457157765336    4.47332185643993
N         2.14435107659698    3.89297697869544    5.83946170816872
N         2.10123803060307    2.93372514643551    3.36320329663911
C         5.15545585815311    2.17151201130883    5.03414105548264
C         4.39773608296444    2.76937899211236    6.07216436448560
C         3.15907524561988    3.20543630248253    5.44477996263275
C         3.17132618766728    2.74808325333541    4.05201833596693
C         4.47418817725083    2.15128433262969    3.79131377593266
C         5.11046011787682    1.62354345468425    2.69397646671096
H         4.64020730813078    1.59681227566038    1.72225567737246
C         6.41023455916003    1.11096531205735    2.86033848751806
H         6.90652298206803    0.69667271246738    1.99511219783975
C         7.06111667484913    1.10970006466907    4.07056193507067
H         8.05475602490452    0.69444606381343    4.15264966158568
C         6.43969535932740    1.65210257052913    5.21826985156893
C         6.95913851490617    1.72962528089274    6.53056950876325
H         7.94714477159680    1.34310777846998    6.73282985005461
C         6.21404757738170    2.28560418424159    7.54238279732236
H         6.62766667717975    2.32675557190314    8.53933218045047
C         4.92702001223892    2.81749720006412    7.33897179525111
H         4.38142463228540    3.24305605927206    8.16781594925131
C         2.05524506124234    4.36082775953479    7.16064880531284
C         1.16063241695853    3.71760585716052    8.02713268133329
C         1.08913354227492    4.15475598964465    9.33929899238960
H         0.42393202068319    3.66397310599482   10.03092426575299
C         1.85475611210446    5.22261543711771    9.77055748897185
H         1.78688694779843    5.55349580790052   10.79597773956429
C         2.68395493373160    5.88489124169497    8.88623110053672
H         3.24492730631733    6.74202214566745    9.22483991966618
C         2.80282213204753    5.47169008964764    7.56726216155084
C         0.32818026544011    2.55918663027685    7.52500700976706
H         0.20396277901656    2.66595879106258    6.42528982237089
C        -1.07656717541316    2.53995099843953    8.12215062116470
H        -1.05868567922284    2.25894844395002    9.17235289493421
H        -1.69013882080170    1.81658555134773    7.58966828888128
H        -1.53844881693172    3.51943248845082    8.02347319889639
C         1.05715657043355    1.23872618998069    7.78796663925117
H         2.03751452771295    1.22700645647990    7.31128182128575
H         0.47636388415348    0.40396791424399    7.40128257018838
H         1.19848481975077    1.09612468406664    8.85785296567394
C         3.64459228017560    6.25968598165577    6.59057225339044
H         3.65477293851522    5.74678523866974    5.62264486834629
C         5.09433101911509    6.39410174334180    7.05942693592949
H         5.15224573939673    6.94375687353465    7.99500133094055
H         5.67514515900870    6.93240385849330    6.31333876938808
H         5.54800627888356    5.41478099244639    7.20524632640103
C         3.00676765779692    7.63586542949620    6.37777542196704
H         1.97627116478715    7.52604670892486    6.04751982271358
H         3.55892771015662    8.19230002597013    5.62342248145184
H         3.00971898578926    8.20849176980727    7.30136569165360
C         1.98001502222339    2.54792781215641    2.02522946695213
C         1.90557234365806    1.19757188761976    1.66901514355249
C         1.74760813750105    0.88158329933551    0.32948649395431
H         1.68074296151724   -0.15905302659943    0.04616322677488
C         1.65360227256996    1.86169374796471   -0.64794522261590
C         1.68985941648660    3.19545247133291   -0.26118174818746
H         1.58697880820504    3.96915469305091   -1.00803119740453
C         1.83569754102204    3.55805797304806    1.06484219537659
C         1.92537148254118    0.12677334498707    2.71817497150152
H         2.92997911305884   -0.02694314950441    3.11628468651589
H         1.57684617454655   -0.81380003366846    2.30032096687284
H         1.26969095331978    0.39874251244033    3.54561710643677
C         1.46596120213791    1.49753777540411   -2.08792326400538
H         1.74618684148098    0.46287220579385   -2.26934040274367
H         2.05952582892138    2.14420622794325   -2.73120401375317
H         0.41898623144335    1.62091147969917   -2.36497696371814
C         1.85274252366965    4.99360367925658    1.49185196025889
H         2.86149737938150    5.30980052378630    1.76493810453022
H         1.20738197785150    5.13905347406527    2.37398722293286
H         1.48929571015816    5.63871379748392    0.69693616214210

