61
CSD_code = MEHHOY | q = 0 | S = 0 | Stoichiometry = C18H32Cl4N2O4Pt | MND = 6
Pt        0.05255318889753   12.39594387444881   12.01264438195238
Cl        1.65119591276380   13.77019292344569   11.11914671280598
Cl       -1.00797508041210   12.15127324416607    9.91427630796712
Cl       -1.21531290424598   14.23833362879431   12.50958891349118
Cl        1.09857826726004   12.44551015078690   14.13424553006868
O         2.46119712103713   11.01171001372096    9.28442530342368
O         4.25554511624111   11.84142355932704   10.36024784605777
O        -2.47922428945723   12.28061275048420   14.90051124247948
O        -4.10664763394083   13.14496295573566   13.60304740991352
N         1.16024016864724   10.59830771071525   11.55766198464828
N        -1.38051790633585   11.01629991463626   12.85123498416525
C         0.52840592866458    9.57147459336972   12.38595263365371
H         0.85620577479258    9.72560363662983   13.41950934896203
H         0.81304411355563    8.56530735306940   12.06000721111358
C        -0.99046689640634    9.71807159009288   12.30270381759031
H        -1.30700299881323    9.68818202558520   11.25461415786345
H        -1.46373116600504    8.89550605749604   12.84967336864899
C         2.61952776452730   10.72365063839744   11.65269777563377
H         2.88301091022790   11.42721355205385   12.44782695411596
C         3.35297992284552    9.39789880363720   11.87924480479500
H         3.12514657022259    8.98268996201669   12.85681403683726
H         4.42258511943910    9.58458618025903   11.83257915759633
H         3.09639878065382    8.67628437060363   11.10579625108048
C         3.08872874191064   11.25170915206388   10.28641841968608
C        -2.78588608090954   11.40788675089859   12.69657926491930
H        -2.92819714047539   11.91324537976758   11.73675448326836
C        -3.77854574876285   10.24802109147188   12.81913570802333
H        -3.64289464197948    9.72093698636604   13.76175542740884
H        -3.67546375087265    9.55118413603785   11.99217708192315
H        -4.78622666960451   10.65405263959351   12.79516118740672
C        -3.08418045472049   12.36889109788450   13.86044640212689
C         4.84635931302454   12.31624573264075    9.13287151660708
H         4.66574460080682   11.55252990707270    8.36961735068569
C         6.33688920906570   12.56326575953433    9.41413731793293
H         6.97362674510523   11.93910877597532    8.78941744077557
H         6.52667715182328   12.31354185711993   10.45792016344562
C         6.57167971928757   14.05823372555233    9.16854319458677
H         7.32687173618074   14.46815724382371    9.83641615578957
H         6.89818852139442   14.22092195122577    8.14018785180810
C         5.19596725913440   14.68573416766755    9.37603969326324
H         5.11229093054866   15.67437657985758    8.92986526657674
H         4.96922957249762   14.76038972071693   10.43947444299346
C         4.26033504265273   13.67203557129815    8.72620844108477
H         3.22989325209675   13.77248378253132    9.05943897613157
H         4.29113687258635   13.76354882502912    7.64042534611650
C        -4.51618702440280   14.09708955193149   14.60502071173556
H        -4.02525054645770   13.81781725958973   15.54116296301419
C        -4.13701824173985   15.51362062429254   14.15675247698674
H        -3.89647544861149   16.11537609753842   15.03295855453560
H        -3.26974868674179   15.49041542381142   13.49959765472288
C        -5.39650079831768   16.04293709626272   13.47785955104668
H        -5.40709192392258   17.12875345984952   13.40896430483504
H        -5.47762155378035   15.62637650048328   12.47386796835029
C        -6.51207106585892   15.49658892521867   14.36454154847911
H        -7.48490932720298   15.50932259533466   13.87636283437609
H        -6.57817912121197   16.08818170469403   15.27879625176471
C        -6.05194521515379   14.07308362567301   14.69356973791085
H        -6.42387736641195   13.37324204971542   13.94463928157308
H        -6.39565611986639   13.74354146124960   15.67255742622432
H         0.95657471346358   10.43169211294800   10.55782763453545
H        -1.18620223874743   11.05522118781085   13.86557983249056

