68
CSD_code = MEHHEP | q = 0 | S = 0 | Stoichiometry = C30H27ClF3N2OPPdS2 | MND = 4
Pd       13.63496310046678    7.23094947493069   -0.45100851735142
Cl       14.55326807456180    8.11226387984268   -2.32636217700435
S        11.39007382040295    7.42797235499760   -1.07506693708296
S        12.47173881899075    6.33939357081273    1.36432928017431
P        15.77115806036850    7.02098902379896    0.15665878949867
F        17.02795039833423    4.25004318915478    5.22497496398775
F        17.98099545228192   12.37972912744327    1.26085117729062
F        18.19576348498530    3.88717660867871   -4.20742686067302
O         4.34079578088061    6.50868030097244    5.72020847953930
N         9.86251036363936    6.31949033074883    0.80905999765078
N         7.57974241893269    7.17251339455038    2.19202058821415
C        11.08644564830468    6.66510515157440    0.41385320885134
C         9.57738566793164    5.79487778488556    2.12412812647964
H        10.51256109997135    5.55000279562687    2.62918685713992
H         8.97340788593496    4.88919801830820    2.01149721151482
C         8.79121109852632    6.84641165187882    2.91210550877981
H         8.55162431730304    6.46514988680251    3.90283056875547
H         9.42712800122521    7.74046221924824    3.03137425400831
C         7.87467513638755    7.72920599728544    0.89203981654638
H         8.46450647059677    8.65805559673135    0.96068677342592
H         6.94262424839033    7.93526974922682    0.36615901013646
C         8.67001987251254    6.69388845678573    0.08569412468459
H         8.05866267877337    5.79715760199163   -0.05532087778083
H         8.94834512375020    7.10008763349452   -0.88722970671225
C         6.46206262096055    7.61758999857387    2.90412768429547
C         5.76490834586642    8.77141562035291    2.55870445788147
H         6.10791504540217    9.40431692723523    1.75631600950975
C         4.62777452208899    9.13064655300567    3.26358158332269
H         4.09733666230504   10.02990925005606    2.98830690238615
C         4.17373040208905    8.36789958544132    4.31630525361895
H         3.29361373716386    8.63946667859035    4.87526882568557
C         4.86402141277973    7.20783157878698    4.67371940603295
C         5.99543082184248    6.83626435311551    3.96584307402851
H         6.51878457219113    5.92596240865241    4.21078899767285
C         4.97971829959441    5.32742105170145    6.13430064563701
H         4.99296112360243    4.57507152336812    5.33862388972025
H         4.39258441776467    4.95281158339150    6.97132898942004
H         6.00426205393813    5.51930915636720    6.47082320742778
C        16.23203518871328    6.12665409685216    1.67602817275716
C        15.64631447293882    6.58428125802366    2.85521957034597
H        14.97193476494612    7.43144677188172    2.81180691584195
C        15.91073939686951    5.96002638568652    4.05674151788859
H        15.46755305389883    6.29618331060604    4.98067999360503
C        16.76375889402922    4.86780568632260    4.05849911425730
C        17.34995086431743    4.38895081235187    2.90037850245517
H        18.00355471420507    3.53202460403087    2.94614627724793
C        17.07720558304277    5.02395654534231    1.70165583569176
H        17.52102332381256    4.66120829983016    0.78566282258130
C        16.51876897810165    8.64368044668408    0.46772155188122
C        17.84050690608620    8.79917456684838    0.87597220073825
H        18.47205713434232    7.93167264776332    1.00492328179721
C        18.33903406264328   10.06138032783690    1.13722649932835
H        19.36186965394337   10.21142892849781    1.44541853023831
C        17.49537189087723   11.15216007596689    1.00472878684982
C        16.16655677684700   11.01850155989677    0.63825672296357
H        15.54045924481681   11.89356280810327    0.56445705558252
C        15.67982190988580    9.75260068078521    0.37348864852523
H        14.63356716748372    9.61005183747249    0.07979253117223
C        16.64218079586500    6.12861684202000   -1.15953605761383
C        15.87493412522917    5.11994117205596   -1.74647568081646
H        14.84730316130718    4.96238123279260   -1.39720318947487
C        16.39158466638572    4.35580297314082   -2.77211676133500
H        15.81808397086678    3.57498408322742   -3.24610275493533
C        17.67941810059138    4.62674371196797   -3.20880028337653
C        18.44874927505131    5.63552963332090   -2.65773435136229
H        19.43762645168245    5.82522738780943   -3.04452187180296
C        17.92298709550552    6.39168156439381   -1.62392256270922
H        18.50198731467493    7.19764968005540   -1.20027360501377

