96
CSD_code = MEHJAK | q = 1 | S = 0 | Stoichiometry = C41H51O2PRh(1+) | MND = 8
Rh        2.66444826879749    3.31763105312011    0.35862164500807
P         4.32858812754095    4.35556521589039    1.48770072522150
O         3.03580181098403    5.07249422546087   -1.04274541966883
O         6.63608943534564    6.09147846530034    1.75410665397603
C         1.48968079268394    1.43939621887812    0.18828553761802
C         0.68181510636258    2.50944658728003   -0.25378594566520
C         0.41293626610765    3.38856413284504    0.88418107751972
C         1.11316668665455    2.89974501442800    1.98834436659032
C         1.88611859222549    1.73931937747559    1.54064082832471
C         1.79851745109488    0.18493673199719   -0.56106364109287
C        -0.05113287001856    2.55398984136006   -1.55554494413436
C        -0.58174823363028    4.50446205684929    0.85507036778885
C         1.00877314130765    3.33929737838724    3.41248449807634
C         2.60236876678122    0.78939564263916    2.44471826759113
C         3.84366034993004    5.47218827901115    2.84144033565733
C         2.66137046797111    6.17828020777983    2.62977916224971
C         2.22088446499011    7.09660988452638    3.56295124501114
C         2.96040386140997    7.31384661050335    4.71544192531122
C         4.14152032475146    6.62042113105610    4.92338611219590
C         4.59003550156582    5.70181835292133    3.98977073549964
C         5.73317918678968    3.37418952437290    2.06795806762125
C         5.62187090224356    2.71837825786626    3.29131513806032
C         6.63763595762046    1.89011471439558    3.73164709694087
C         7.76405596628245    1.69916804452063    2.94736331584596
C         7.86693080961573    2.32957335802979    1.71749573125701
C         6.85291523132587    3.15778226569429    1.27197931790505
C         4.95575620908879    5.53962685168511    0.27003396656180
C         4.25878519545347    5.69999817140386   -0.92441366360578
C         4.77936878397209    6.52130928357103   -1.91741768565750
C         5.95349938087295    7.21182798658311   -1.67525734086451
C         6.61585948204209    7.12190241256825   -0.46269044016962
C         6.11257829483127    6.28662644739719    0.52698331943307
C         7.83184344804480    6.75578813426537    2.10352925584534
C         8.00843344232304    4.69544841387901   -3.31899368993909
C         7.08718057405394    3.69069623592869   -2.64017531428812
C         6.18843676449274    2.97590998903937   -3.64529281790889
C         5.22506898234171    1.99866549918517   -2.96543077147969
C         4.21317520241436    2.72326083354368   -2.10634350439761
C         4.15773048012702    2.54412856484255   -0.78573435077307
C         3.28216217385448    3.57127495366118   -2.85266657744476
C         2.69261833879277    4.65807992723733   -2.35227764141320
C         1.64389090391499    5.52939445783355   -2.97728661353162
C         1.19031838400348    5.08398128147672   -4.36422811922951
C         0.09987997784218    5.99058674480913   -4.93900716890957
C        -1.23007775808656    5.87654896826004   -4.20249039002297
H         1.01380164046113   -0.54713259431020   -0.36341579641906
H         1.83553075774584    0.36233250912267   -1.63299863647957
H         2.74674405982911   -0.24160964603182   -0.24485928993662
H        -0.43888493586368    3.54719829159770   -1.76373583990141
H         0.59149695716606    2.24591726261956   -2.37832076023785
H        -0.89543656381858    1.86371397168942   -1.51129026081259
H        -0.55066818023013    5.08425198172502    1.77387609247476
H        -0.40423230631444    5.17723387765152    0.01632034934290
H        -1.58548426021554    4.09197875658756    0.74356834667254
H         0.36799315342173    2.64112958031730    3.95319591501967
H         1.98194950975303    3.34998495593626    3.90001618848214
H         0.57887616345264    4.33367787007318    3.49522404266673
H         1.92876564131204   -0.02661377024199    2.71070030372399
H         3.47502271056788    0.36024623767980    1.95603706321922
H         2.92239689968272    1.27898230621393    3.35993842596739
H         2.09548083510096    5.99699437628342    1.72083352370577
H         1.30529218889125    7.64476690346586    3.39675678046999
H         2.61762869267969    8.02716277294365    5.44911107414695
H         4.71963141397884    6.79856267717077    5.81759182516607
H         5.51841653120638    5.17470387859749    4.14742229951676
H         4.73834622852233    2.86594797289963    3.89780970491677
H         6.55146298053648    1.39112930358842    4.68518452556446
H         8.55813775477560    1.05477280139082    3.29190573161013
H         8.74047065509341    2.17224406072935    1.10253720652814
H         6.92841298731423    3.64262424122304    0.30977645099830
H         4.28102253151532    6.62218719000696   -2.86715196886142
H         6.35564298546916    7.84966681950258   -2.44649379370400
H         7.51385305857654    7.69514982696302   -0.30288151695256
H         8.06454375459298    6.43156340570993    3.11587024187098
H         8.65164812520960    6.47532481025886    1.43678361564736
H         7.70091663664987    7.84108640315800    2.09151655058429
H         8.63470874096707    5.19824116373134   -2.58592203840399
H         8.65400968589165    4.19653086274557   -4.03751944312633
H         7.42716544663922    5.44876226354043   -3.84579568923943
H         7.68699236934736    2.94948015821356   -2.10686075871990
H         6.46195978537575    4.20995113112498   -1.90876997404406
H         5.61858481345358    3.71859731972901   -4.20855430851007
H         6.80943608129274    2.42463363211548   -4.35382884777028
H         4.69039519708596    1.43228547692899   -3.73223725698490
H         5.79176937736584    1.29319784940062   -2.35625601870105
H         4.86999317535670    1.86531609391182   -0.31852089391629
H         3.06252531670177    3.26920071403012   -3.86481349793953
H         0.78763128828127    5.54715411038770   -2.29633883264521
H         2.01265166866313    6.55923137869599   -3.02881461080431
H         2.04795503907572    5.09638939026654   -5.03978909127522
H         0.81249301807508    4.06107202814025   -4.31609356454405
H         0.44040383495179    7.02792560366863   -4.91938725993297
H        -0.05621624725656    5.71629025525479   -5.98366091650205
H        -1.98958842977197    6.46177965738293   -4.71380855045726
H        -1.56270840146006    4.84080508334205   -4.17290978180363
H        -1.15603499473571    6.24952906249113   -3.18342971345315

