87
CSD_code = MEHJEO | q = 0 | S = 0 | Stoichiometry = C37H41ClO6PRh | MND = 8
Rh       12.04242408672692    0.54632505904687    1.83379301580846
Cl       10.04961945819607   -0.45271817020499    1.10708492035636
P        12.99977565203317   -1.45911947843208    1.39881592079081
O        14.17609614533317   -0.27286032243803    4.04114246249611
O        14.47270123203339   -3.81740957457556    0.93015728311317
O         9.97446274452191   -1.60085536280309    4.38300429553522
O         9.74033957820447    0.62825161082645    4.13676354307106
O        13.58165331054339   -1.72256732101288    6.37621130544684
O        11.64234804917871   -0.57814695843236    6.46385758228611
C        11.83271980503731    2.28890786278156    0.42048057541227
C        13.21551276362846    2.05927403405270    0.54236460989817
C        13.56040904964237    2.16521090029149    1.94341340848711
C        12.39181442287714    2.59457330884414    2.65653106426459
C        11.30820369929040    2.60455629296668    1.73949899297269
C        11.02668466426234    2.38142188859616   -0.83648051948114
C        14.21357321825411    1.94752706368921   -0.56617875277066
C        14.96342734718582    2.21267838834088    2.45908938283665
C        12.35016440820245    3.03826691959748    4.08506402782184
C         9.92666159928196    3.12451819600730    1.98242405346227
C        13.64806178864837   -1.36805166190568   -0.30114491490153
C        12.71929122733933   -1.08383843792720   -1.30208578049459
C        13.12840226689759   -0.96243041838526   -2.61737321663210
C        14.47008247352124   -1.09027160023961   -2.94212663885690
C        15.40224230877755   -1.31277110042423   -1.94254019934096
C        14.99742174055228   -1.44396426564285   -0.62518268170362
C        11.93665559883458   -2.93752675951947    1.47466576640065
C        11.35977006144449   -3.52944932951120    0.35864797065245
C        10.54239785945837   -4.63496590121397    0.50789419036572
C        10.29203865333562   -5.15665625527014    1.76570205570682
C        10.87575243903032   -4.57680904388288    2.87909859683023
C        11.69733924990257   -3.47512786603203    2.73636009068470
C        14.38956436331270   -2.04216038010244    2.41887001821776
C        15.02285669262327   -3.23112170062487    2.02280485277763
C        16.12089011720139   -3.70386171726331    2.72596507156107
C        16.57684828267670   -3.00126090657145    3.83138600208147
C        15.93164049156632   -1.86200619774980    4.26648194979362
C        14.81930621957710   -1.39460244500466    3.57505171106541
C        14.98218344317102   -5.04845345233480    0.48085735047011
C        11.81998034681404   -0.26138632359004    3.66900253032216
C        12.86110480912270   -0.48097957764010    4.47655854938927
C        10.42901140195758   -0.51712840640790    4.11030740951779
C         8.35372344002662    0.55580491699173    4.46059022007443
C         8.00976239005301    1.63899836041140    5.47021337329347
C        12.75754114558292   -1.00208497751076    5.86502174824662
C        11.30390600716428   -1.15766221531522    7.72677641736804
C         9.84456473769838   -1.58208104386028    7.70368644719513
H        10.12832799601016    1.77002654990226   -0.75690961238480
H        10.72169058256408    3.41606515883056   -1.00151204421073
H        11.60055990732735    2.04431639796880   -1.69618451244301
H        15.02811228933492    1.27599086983856   -0.30351170813034
H        13.75591539774637    1.58359722768715   -1.48255520378913
H        14.63819276416640    2.93473899540745   -0.76095454710475
H        15.60228516459937    1.51951741012446    1.91616803264552
H        15.36194861774948    3.22148341914683    2.32994401905034
H        15.00282012880702    1.95514372862661    3.51323606352576
H        13.14405072233262    2.56741213151086    4.65949392784144
H        12.48336346233961    4.12112320509619    4.13286551835896
H        11.39753578262339    2.78397486366582    4.54417468123699
H         9.85167341912349    4.15195600505305    1.61914008601878
H         9.19318391779211    2.51908080112556    1.45342650587617
H         9.69086043205613    3.10865885961762    3.04255874267984
H        11.67980931828067   -0.93842167701049   -1.03455932743465
H        12.40196429082105   -0.75896613892378   -3.39127489633971
H        14.79076677863119   -0.99744018263828   -3.96946388962345
H        16.45214405363509   -1.38101440167146   -2.18978079506157
H        15.73284826918270   -1.60274176014849    0.15091597064408
H        11.55086493067289   -3.13583530387595   -0.62742243416416
H        10.09357573863044   -5.08781045702922   -0.36469997163353
H         9.64400919677230   -6.01382005541869    1.87733823794021
H        10.68701720983537   -4.97588479354747    3.86422487685367
H        12.14898868930413   -3.02646137480198    3.60980755736590
H        16.62218898534518   -4.61038078436297    2.42620649928049
H        17.43454676318475   -3.36993399522305    4.37311153200323
H        16.24918671268669   -1.34024282031367    5.15398484687046
H        14.92309721361258   -5.81345551237057    1.26063199449373
H        14.34981822278026   -5.33817738321157   -0.35650925792705
H        16.01744332965002   -4.95248438157907    0.13762860257667
H         7.79139639693432    0.69047171623358    3.53026152104251
H         8.14229312634606   -0.44137359319571    4.86075790979623
H         8.62690633534227    1.53135349337558    6.35926160664500
H         8.18281810855052    2.62551389491756    5.04670981023713
H         6.96360395936522    1.55667988687243    5.75117325723881
H        11.96371481194462   -2.01383814469088    7.90252647713246
H        11.48702120420168   -0.40311099727445    8.49980710080938
H         9.19670784342512   -0.71157744969062    7.64473339031089
H         9.66207346364962   -2.20651998243601    6.83264135759807
H         9.60974367203100   -2.13949905624072    8.60618201233392

