15
CSD_code = MEHKAM | q = 0 | S = 0 | Stoichiometry = C4H6Br2N2Pd | MND = 4
Pd       -0.00073131273169    0.00015419537740    0.00075199654059
Br        0.59723386994905    1.60176536635039   -1.75062360145492
C         2.09328376136504    1.20762727511603    1.80104381836076
C         3.08793966913459    1.78016145225000    2.64853725020903
N         1.29185925824704    0.74617496009387    1.11757663758556
H         2.60974403671659    2.41687233957028    3.39331912960517
H         3.63806368374335    0.98595057342108    3.15379769756505
H         3.77487400121366    2.37721294563716    2.04839908682717
Br       -0.59735726779277   -1.60266198047103    1.75140809525081
C        -2.09316032987053   -1.20762432781146   -1.80119216778994
C        -3.08796560225025   -1.78015100322767   -2.64851821709986
N        -1.29093864906760   -0.74546842074367   -1.11914067278492
H        -2.60987193951504   -2.41690408172599   -3.39333007625164
H        -3.63811688319893   -0.98594645323196   -3.15375579711579
H        -3.77485629594253   -2.37716284060441   -2.04827317944707

