35
CSD_code = MEHNIW | q = 0 | S = 0 | Stoichiometry = C6H18N6NiO4 | MND = 6
Ni        9.17956440435222    1.57369769139002    1.73362481099244
O         9.27736295743301   -0.73421124769769    3.21658870433674
O        10.66265728856169   -0.70588021337899    1.57297444753479
O         6.85395831157384    0.86334991137903    1.56417974269740
O         8.01465494766752    0.80620967648888   -0.27043042142891
N        10.78413419458047    2.70579544279792    2.72064598858472
N         8.39515889705696    1.86204396739948    3.95477626359874
N         8.60926556897108    3.60973221995795    1.18562013616679
N        10.87163398237599    1.68835056047897    0.07283835907001
N         9.67728896889436   -0.24453653121833    2.15807779928799
N         7.87704292085398    0.91696644945708    0.92522853683517
C        10.78773933303176    2.30314022985968    4.13255525177583
C         9.41551531611625    2.47897953242659    4.79453264910498
C        10.55628048003804    4.15417719097789    2.58098838841806
C         9.10284744783233    4.50487469900131    2.23006566984372
C        12.06200840409118    2.32197753367073    2.10299616002582
C        12.03023403455375    2.41614495695290    0.57143353616263
H        11.05153949012517    1.24447965268167    4.18057243066215
H        11.54316043964009    2.87102104030181    4.69949723936946
H         9.19545531778279    3.54274861415424    4.91743614944197
H         9.46665493231770    2.03736582750456    5.80066708130330
H         8.38348502632592    0.85129583349040    4.11802508268695
H         7.46831008581508    2.20631553660631    4.18206309491006
H        11.18955481133422    4.53058193840763    1.77653013603981
H        10.84480632446868    4.68239997625975    3.49878309142947
H         8.45700669358444    4.38054965338332    3.09845067770812
H         9.06657991042148    5.56261805928661    1.92537388328362
H         7.61407635497227    3.75681853247529    1.03948492136977
H         9.08501268400543    3.79775834701766    0.30479626205800
H        12.88913322580843    2.93297270905225    2.49639094507788
H        12.25526660966811    1.27860782573734    2.36029293064593
H        12.98535856814859    2.02205925442036    0.19228975637139
H        11.95890756843533    3.45882726288780    0.24614495122206
H        10.70117629482091    1.88870781670067   -0.90723722572651
H        11.05056820434082    0.68276004968918    0.14764256913950

