41
CSD_code = MEHNAO | q = 0 | S = 0 | Stoichiometry = C8H22N6NiO4 | MND = 6
Ni        4.12783933262179    6.93241587011840    0.30678313109235
O         4.32445167347642    9.11848821185955    1.41281320293945
O         2.26129745201785    8.64298111967783    1.00059199796062
O         4.49382163292915    4.48975897054684   -0.58209447538583
O         6.17526926952271    5.83822832439917   -0.49820200717217
N         5.34091709505508    6.60093667044266    2.22194484406469
N         2.61146291024160    5.56035210071189    1.40277361182783
N         2.39398197056503    6.72768662577411   -1.21785913770116
N         5.00447453066279    8.28068042728115   -1.32539652921244
N         3.45132548330074    8.36076576344683    0.99746204106877
N         4.98033887228758    5.58939219448704   -0.35912585941471
C         4.70664013118629    6.52437746390877    3.53836072398501
C         3.71733247769462    5.36250569876092    3.61953562735719
C         2.42146877945601    5.60759470725631    2.84952799503732
C         1.33247330050969    5.64873727194483    0.70059501257041
C         1.56299054551949    5.59801458479131   -0.80577144974604
C         2.61704630732281    6.72044379380484   -2.66048814625364
C         3.35602148248165    7.96647538125203   -3.14399739995013
C         4.83226558071951    7.99264319566895   -2.74960561914148
H         5.90857357948964    7.44806793819272    2.17934533828969
H         5.97587743031920    5.81162448975940    2.10786462525336
H         5.45970806563971    6.40303972759133    4.33214968123164
H         4.17913492818757    7.46429249898671    3.71772409831173
H         3.46460761404825    5.19902442229719    4.66849430280296
H         4.19649020138424    4.45503614193784    3.24374792234332
H         2.02029809110926    6.59207311137624    3.10775049776979
H         1.67965719685443    4.85215358590211    3.16103484005676
H         3.02132125523319    4.65298207733567    1.16514986460449
H         0.65450100927787    4.83279711718286    0.99698765207792
H         0.86563175518504    6.60133527316027    0.96752041289827
H         0.59242242583658    5.60262118565608   -1.32660195997977
H         2.09147162965111    4.67614195077639   -1.06536590190134
H         1.87846682191012    7.57978290349366   -0.98095368919477
H         3.19738846916055    5.82752815033782   -2.91091517673320
H         1.65346591783739    6.65345832405358   -3.19441115072693
H         2.86211288260444    8.85730425728607   -2.74806725982661
H         3.28997965998867    8.00173955055904   -4.23267606903155
H         5.35019680234067    8.74141217105692   -3.36845336898592
H         5.28083696809656    7.01809614781442   -2.95689504566294
H         5.99076613437001    8.17438696543146   -1.08533760198126
H         4.75837233390609    9.25362363368157   -1.14643957554108

