47
CSD_code = MEHYOO | q = 0 | S = 0 | Stoichiometry = C14H22Cl4N6Pt | MND = 6
Pt        4.49968314423413    5.26553143642686    5.25172701981155
Cl        2.35990503005024    4.31296603436141    4.87338430943220
Cl        4.86786345072166    5.53482229492458    2.91734318459954
N         3.81707816420881    7.13464267158267    5.49529677878806
N         2.87753646830126    9.19784820663284    5.33332353577990
N         3.55006827018608    9.57236294169121    6.44328384196095
C         3.01223137571977    7.90879223514721    4.86852165478069
C         2.17901971955880    7.49530516078306    3.70444325125219
H         2.57534276748393    6.56228505398713    3.30271986891990
H         2.23038884481158    8.25771510062470    2.92545003521898
C         0.72676210648217    7.26958186734908    4.14170489954248
H         0.68359481544905    6.44718575718325    4.85003586195434
H         0.13004120930790    7.00254691190341    3.27454218021969
H         0.29894865948219    8.15669879527062    4.60370560158502
C         3.25603356378026   10.82744568776453    6.66330415706891
C         3.81249489034381   11.58331604713111    7.80928718766995
H         3.00654352941548   11.94533929631524    8.44587055238942
H         4.37394148884680   12.44526946351421    7.45212529464061
H         4.46824664141365   10.93999060504485    8.38794758064308
C         2.36081817314389   11.30487798694919    5.66221479576412
H         1.95232353609061   12.29121598253123    5.58448503152959
C         2.14481830178309   10.24448154228266    4.83728635543764
H         1.54830053633893   10.16049760754332    3.95336383384081
H         4.26193475285340    7.60527886375709    6.29698876989781
Cl        6.63979196623027    6.21820121025390    5.63014560040415
Cl        4.13166038829845    4.99697677525817    7.58539635757513
N         5.18180520884668    3.39626578576944    5.00861507088981
N         6.12132692203210    1.33308026908769    5.17048306699017
N         5.44908064442852    0.95875159854277    4.06028479123315
C         5.98658248616717    2.62208478417686    5.63540393496944
C         6.81995934723582    3.03561239773989    6.79933501640087
H         6.42373397032716    3.96869045050292    7.20102272073682
H         6.76848047994137    2.27325474297547    7.57835451394296
C         8.27226200243039    3.26114875471870    6.36207771493443
H         8.31552589809554    4.08349546676761    5.65369374031164
H         8.86905655326462    3.52815507816989    7.22920118551610
H         8.69997828784405    2.37396924888845    5.90011361354769
C         5.74298901220360   -0.29636156110390    3.84027019428748
C         5.18667237326554   -1.05209030915616    2.69412007131509
H         5.99279972478443   -1.41407666438124    2.05762800050642
H         4.62507369753495   -1.91408938726368    3.05111995083788
H         4.53102914433079   -0.40860712131016    2.11539376493979
C         6.63782878156848   -0.77398669737644    4.84160322915676
H         7.04607458700443   -1.76041718807212    4.91947295412988
C         6.85387658629399    0.28637980923043    5.66655731160465
H         7.45019307491538    0.37025305443299    6.55062430883103
H         4.73729942294884    2.92581195144703    4.20662730421045

