45
CSD_code = MEHZEF | q = 0 | S = 0 | Stoichiometry = C14H22Cl2N6Pt | MND = 4
Pt        4.55121149605408   -0.00099435044119    5.18422387711181
Cl        4.87951597469364    1.77938135548761    3.73654928065783
N         2.94642272273410    0.86714492121556    5.89846402838534
H         3.00485455295735    1.47639575116257    6.72324424019268
C         1.75696298526048    0.73569367693277    5.45124362925536
N         0.71547699442618    1.38589567386630    6.07999377405439
C         1.46028438070025   -0.15264615820076    4.28554128782270
H         2.39517020112052   -0.27844162040851    3.72575132802727
H         0.71893641616123    0.30693472393791    3.63022445711136
N         0.97304637272133    2.15382847340814    7.15834541033786
C         0.98212529723670   -1.52353439481513    4.77510273808256
H         1.75124873632917   -1.97696938763381    5.39641271275593
H         0.79426341392999   -2.17312621279517    3.92490457580526
H         0.06815385660003   -1.43847707559808    5.35895174157197
C        -0.62022395103258    1.38736464499977    5.79223094370371
H        -1.03115906881383    0.83849478463494    4.97107279121599
C        -1.22539017306624    2.18160911241353    6.72091557845932
H        -2.26666104693446    2.41433413215154    6.80686959890046
C        -0.17546522493925    2.64162228047542    7.56047452596081
C        -0.28758157655231    3.54131351316384    8.73386526366665
H        -0.93651038801882    3.09631559163414    9.48686917111688
H        -0.72039208721751    4.49510022855763    8.43537727481601
H         0.69605864880556    3.71060114167596    9.16155689530283
Cl        4.22327782663399   -1.78074204832475    6.63202764656011
N         6.15676137703736   -0.86824276688720    4.47045925742275
H         6.09924003796311   -1.47705304670853    3.64531344989273
C         7.34577234534132   -0.73657167305647    4.91881324231568
N         8.38811841905264   -1.38590997224494    4.29062881575273
C         7.64106675256417    0.15119990851178    6.08530745419265
H         6.70574542465473    0.27595266701933    6.64460984612990
H         8.38231622666198   -0.30829650399229    6.74078349117088
N         8.13193382731467   -2.15334023253024    3.21158925763255
C         8.11857373956477    1.52275071747224    5.59694978356856
H         7.34955349781054    1.97602497411043    4.97538856426694
H         8.30538339994312    2.17194897225353    6.44767951045514
H         9.03300119537115    1.43872403155046    5.01366841655232
C         9.72357849332234   -1.38674400032401    4.57954971133838
H        10.13351916729798   -0.83794376116746    5.40124932672136
C        10.32997326067986   -2.18036747935443    3.65114135957094
H        11.37145656905803   -2.41243799503092    3.56598483163937
C         9.28103955276447   -2.64051556216810    2.81040021760642
C         9.39472831787881   -3.53967383807334    1.63674376050803
H        10.04508360154282   -3.09398968539912    0.88466004954117
H         9.82726170283450   -4.49397912587370    1.93574798584386
H         8.41116673154716   -3.70863438547632    1.20751889702308

