52
CSD_code = MEHZUV | q = 0 | S = 0 | Stoichiometry = C18H25BN6OOs | MND = 8
Os        3.59786106056082    2.85836107417353    0.22556136451238
B         6.45301882474152    3.92520370234147   -0.98078121686412
H         7.48498293762557    4.36398247173682   -1.35584889163380
N         4.88106963854997    2.05962479422758   -1.56707755085477
N         6.02560023630522    2.70862191434545   -1.80496641043844
C         4.75740616029774    1.13786611515710   -2.51278802027634
H         3.90955124874145    0.48869195532339   -2.56629399407298
C         5.84848575172201    1.17993704767893   -3.37854515378787
H         6.03153680383307    0.55965417005324   -4.23155307184013
C         6.63133000761992    2.20110187812813   -2.88653221897741
H         7.56511055071387    2.59407027083309   -3.23365588934956
N         5.47824066465569    2.97659812852648    1.12622349977161
N         6.53374364402800    3.47973979513717    0.48169033116713
C         5.89096858215759    2.61429182775018    2.33611553092534
H         5.22937718519230    2.17837163322412    3.05776643919159
C         7.24750948608019    2.89450227571572    2.48058872312319
H         7.86242596566073    2.72083285484950    3.33925107290288
C         7.61492652888132    3.44363634510258    1.27113423864367
H         8.56373499836906    3.80394284153229    0.92941616363221
N         4.07346346138519    4.65927869998018   -0.73946620888332
N         5.32798684923770    4.95432144233413   -1.09226221369663
C         3.34339419156168    5.75212669037025   -0.92015909497006
H         2.30267681562868    5.78358546393667   -0.67042910226925
C         4.14298284376408    6.78127175114892   -1.41448399654606
H         3.84426484672714    7.77912298121025   -1.66111103264045
C         5.40020385663277    6.22600123859292   -1.50986717549640
H         6.32690930334749    6.64873147528656   -1.84124230545377
C         1.96040540848004    2.11818304719653   -1.11661729083366
H         2.16386779801868    2.48046797032082   -2.12421355363178
C         1.40422753605506    3.01980385308866   -0.22692621268358
H         1.18497543145596    4.01878612666531   -0.59077915735839
C         0.59631482100343    2.65622556510730    0.99344904709237
H        -0.42608695381877    2.39888011594596    0.69394495610106
H         0.55584225762756    3.55003862058771    1.61502591458857
C         1.21506791143530    1.52225378649695    1.82622079641079
H         0.83702807408203    0.55157768523131    1.49924965033360
H         0.90968732769130    1.65461885115796    2.86518420968004
C         2.72797891507802    1.52000563805066    1.75858098747558
H         3.19947131532201    1.75013967733914    2.70906578957268
C         3.43573946978829    0.75591754495708    0.83228780114129
H         4.41507500345421    0.37208414209255    1.12518254907831
C         2.72179975285435   -0.13935816194337   -0.15982638347624
H         3.47067518517902   -0.62018580565604   -0.78995652414243
H         2.21397780752257   -0.94122632551488    0.38899871232654
C         1.70260266417855    0.62194212368459   -1.03179825825037
H         0.69430551057172    0.47394562025978   -0.64058612365942
H         1.70892683735377    0.20447629078542   -2.04129573743897
O         2.88909754788154    4.29562750604298    1.67443734224751
C         3.73850902607630    5.05864172644742    2.42429723524272
H         3.14362185321962    5.86891297990551    2.87762941057915
H         4.21443560430983    4.50529508515078    3.25561235680184
H         4.54689145115929    5.54667549790334    1.84564866698350

