44
CSD_code = MEJDUA | q = 0 | S = 0 | Stoichiometry = C14H22Cl3N2O2Rh | MND = 6
Rh       -1.87871680827841   -5.82161548754084   -7.36873568925736
Cl       -1.41633789927246   -7.44435310020072   -5.86579008356908
Cl       -0.65580723349259   -6.90066450346563   -8.94461836509907
Cl       -3.80410425775762   -6.84160226659975   -7.89496550442946
O        -0.00296156279006   -4.62042464258555   -6.88336802983267
O        -4.46335236182045   -4.14454475792917  -10.80391519418917
N        -2.93745852034090   -4.70535416160646   -6.08111220657845
N        -2.21179192721790   -4.07566840344118   -8.62768227316278
C         1.16702496828178   -5.34886754713008   -6.54476522528242
C         0.17693309644110   -3.79633717683793   -8.02393813457310
C        -1.14978743037089   -3.09080100981373   -8.31601974386556
C        -1.04520036653139   -2.14918663291195   -9.53577839967478
C        -1.91858320460580   -2.79504462232415  -10.61556418796529
C        -2.13769697003720   -4.21940595467038  -10.09957094882092
C        -3.30367151506756   -4.95537667892903  -10.74703306179863
C        -5.58422555864004   -4.85517404198455  -11.26871969527066
C        -3.50917951709915   -3.57904627607551   -8.14738390837998
C        -3.59772519136822   -3.68927548727025   -6.65268139764061
C        -4.35834547330433   -2.81043956563112   -5.89557065654996
C        -4.44827064854603   -2.99388611791614   -4.52538103838846
C        -3.76389913297105   -4.05410470710271   -3.95208752961614
C        -3.01764029936308   -4.88630229014826   -4.76613601908558
H         0.90930137862347   -5.97016981039975   -5.68859132271584
H         1.97157874666984   -4.65348814245580   -6.28274553895664
H         1.48135086867486   -5.98956431167326   -7.37342397768042
H         0.95364586564550   -3.04813321438340   -7.80686686785231
H         0.49306422726392   -4.40575203875432   -8.88099228571863
H        -1.43178885604347   -2.55084592421885   -7.40532061228684
H        -1.38531168606858   -1.14514996334069   -9.28702857001460
H        -0.00884438080572   -2.07775726080887   -9.86316316152314
H        -2.88080000823226   -2.29469001604127  -10.71456533889650
H        -1.43629851010299   -2.80032527689160  -11.58990827672362
H        -1.24793164030393   -4.82881749590442  -10.29529759815221
H        -3.50675286853969   -5.87734978826214  -10.18549779611576
H        -3.00360144518308   -5.23695596859272  -11.76727473635057
H        -5.80834753595266   -5.70562575459295  -10.61505924039881
H        -6.41914241666088   -4.15742664845886  -11.26466102529337
H        -5.42226288234058   -5.22601994278120  -12.28725875389755
H        -3.69110377173365   -2.54971129911058   -8.47461640048003
H        -4.29083144099300   -4.21532789603792   -8.57333033666899
H        -4.88033508671548   -2.00148540148448   -6.38266826459125
H        -5.04145065249914   -2.32486839428113   -3.92129160353547
H        -3.80853213264104   -4.24059755449727   -2.89160002375982
H        -2.47600795791529   -5.73736246490919   -4.37272097534897

