31
CSD_code = MEJDEL | q = 0 | S = 0 | Stoichiometry = C12H12N2O4W | MND = 6
W        10.49467423014986   13.01534898493300    1.63559394511073
C        10.52331721391917    9.88782759169965    2.83278844269373
H        11.25378835125592    9.64840879402480    2.06787170761170
C         9.47315265756833   11.54849886571820    4.02138741090622
C         8.86735649861220    9.27374560822724    4.43434525243126
H         8.27896984213343    8.53016026681021    4.95081006079369
C         9.34860481023057   13.04625682838616    4.21378001671659
H         8.33226279011616   13.34433239921157    3.87900606499473
H         9.44569326763623   13.28904846991455    5.29187832744706
C         9.79190851975308    8.90030039528287    3.46793891637067
H         9.93851515659839    7.86334994289735    3.21114534243624
C         8.70943391082346   10.61855683936533    4.71911421902741
H         7.99658081137573   10.95362169596940    5.45655178017380
O        10.31505518509470   13.71812540222371    3.48639147881290
N        10.37357850509363   11.18529824154249    3.10274171046364
N        12.73059541140854   12.89020270631904    2.34332368851054
C        13.31663645188071   13.50847057251532    3.36950417533489
H        12.69993177675889   13.64265408421175    4.25137673474851
C        13.43053431656890   12.71220584842458    1.21859893314013
C        12.65479567463775   12.04571375171091    0.10062226967280
H        12.54806128907296   12.78525048641802   -0.72127186121335
H        13.23166151456341   11.17922065027651   -0.28293268862025
C        14.62079629318031   13.96738025178581    3.32303950758946
H        15.05174530789935   14.47111553489066    4.17346663216013
O        11.41151306421092   11.63029756524032    0.54351134799850
O         8.86721636582351   12.62214245488964    1.35216699717795
O        11.05445420236580   14.39607297933905    0.82083364379050
C        14.75246780654563   13.12691280555339    1.09462616187051
H        15.28354049929535   12.95981804446224    0.17034469785063
C        15.35551592024197   13.76926081425266    2.16152858013976
H        16.37624235518844   14.11390112350320    2.08941650385852

