72
CSD_code = MEJFUD | q = 0 | S = 0 | Stoichiometry = C26H34N2O7OsS2 | MND = 5
Os        3.47648693119778    6.02147343042940    6.57135938421817
S         4.99351535410521    8.62114004114031    6.29418244161295
O         3.47645476185541    6.02140604170254    8.18062404159236
O         1.75721276104629    6.20024906757655    5.82543037265184
O         5.46054453322915    8.10741679375523    7.54946334201970
O         4.70302542058498   10.02907829513990    6.21392429727555
N         3.61711561680138    7.79351505400026    5.85582027284597
C         1.36660612811211    7.47036050930275    5.37223068819314
H         1.47454127485232    7.46073999082455    4.27093191725657
C        -0.10083203954039    7.74444513509103    5.71644749172769
H        -0.68092482867938    6.87335048648353    5.40956953692069
H        -0.43108989448274    8.61005067093636    5.13724900797882
C        -0.27698331802778    8.01397414328553    7.20438409004337
H        -1.33177371247692    8.19346434531158    7.42121850011030
H         0.05087100243292    7.13511477868266    7.76250209972167
C         0.56512356404355    9.22001143989684    7.60496799343774
H         0.39373415687940    9.46945644552822    8.65274004457887
H         0.28286090489474   10.08527949599088    7.00002679533363
C         2.04096442019684    8.89694247291037    7.40204230065906
H         2.67626978886340    9.74448900740858    7.66170202093565
H         2.31431759885121    8.05959242534159    8.05517385256083
C         2.35036829323746    8.50162480306575    5.95038073986221
H         2.40435802635028    9.40073353330989    5.32563401546824
C         6.17022289219282    8.22898708310311    5.01257018877882
C         5.76074720598044    8.21817756665727    3.69539909102662
C         6.67506199196383    7.91173103269147    2.70115905764860
C         7.99805950481692    7.62567672334646    3.01770750651277
C         8.39066911017883    7.65410125558962    4.35350120838312
C         7.48088775078381    7.95428352707853    5.35126504793484
H         4.73099604366304    8.44077202338345    3.46290049315928
H         6.35917642012778    7.89538465895930    1.66791648824798
H         9.41798733471731    7.43595851566027    4.60795152145653
H         7.75686275513128    7.96527427675176    6.39319664285210
C         8.99621625762586    7.29851915759091    1.94963422305026
H         9.50924437886913    6.36642962457486    2.17942744486631
H         9.74856095482796    8.08382912237367    1.88796603671457
H         8.51585446819403    7.20495500352136    0.97958051047077
S         1.95948969134470    3.42182784914304    6.29403622660500
O         5.19572023091667    5.84270975122951    5.82533998194286
O         1.49241232571207    3.93553114066526    7.54930195097867
O         2.24998913501392    2.01389474704430    6.21378079130484
N         3.33588581878825    4.24947997488507    5.85572477708518
C         5.58635260233061    4.57264233110017    5.37203343031659
H         5.47836723907308    4.58232227260728    4.27072586587352
C         7.05380376578368    4.29859898939822    5.71623214864960
H         7.63388667652452    5.16965925451305    5.40925479015411
H         7.38404416399287    3.43293108582112    5.13711947067794
C         7.22995876081805    4.02924937990022    7.20420320819001
H         8.28476906013282    3.84993182423606    7.42110975993956
H         6.90195352541793    4.90811953241209    7.76222093092996
C         6.38799526443096    2.82313145285848    7.60484225290894
H         6.55938185882658    2.57380211867900    8.65264153877134
H         6.67040214177234    1.95785711025451    6.99998120167982
C         4.91210627188134    3.14596556126413    7.40184762956274
H         4.27692362249640    2.29830066378771    7.66144577321411
H         4.63860429819747    3.98321971573040    8.05502519787737
C         4.60264092937479    3.54136214485924    5.95021035105037
H         4.54864667480994    2.64229601691759    5.32542657414494
C         0.78282814256776    3.81398993948160    5.01242020791186
C         1.19226231160031    3.82467338735527    3.69522531689841
C         0.27794136285302    4.13105948902731    2.70097534253217
C        -1.04505986277453    4.41711419447698    3.01752076426918
C        -1.43765572959029    4.38887818732444    4.35335761986031
C        -0.52783786578284    4.08877610774738    5.35115804353446
H         2.22200554913368    3.60210213842032    3.46276013519630
H         0.59382961690206    4.14742072227050    1.66774214352916
H        -2.46501530307605    4.60678307894295    4.60778602833957
H        -0.80387012269755    4.07750198636662    6.39305614646500
C        -2.04326221950037    4.74428832672840    1.94952707411402
H        -2.55440275612040    5.67771024922778    2.17814976907786
H        -2.79712932979521    3.96031850243648    1.88957122869114
H        -1.56328166478056    4.83546279451587    0.97906561961902

