43
CSD_code = MEJGUD | q = 1 | S = 0 | Stoichiometry = C11H24N5NiO2(1+) | MND = 6
Ni        3.28667155331984   -0.12225711942150    5.75928031886239
N         3.13961561088741    1.54854064148258    4.52459354298765
C         2.22652436554638    2.54030136589002    5.12005818342745
C         2.01743348384123    2.29805137322092    6.62973683377063
N         1.57292343275068    0.92439542498962    6.88838745300069
C         1.91866910008517    0.42986845366552    8.22198773184452
C         2.07381885870314   -1.10873771409572    8.26305841916180
N         2.90015229267354   -1.61945232189852    7.15288506070414
C         2.33352306353925   -2.72862337294619    6.35642412777549
C         2.43682302659738   -2.39435744927699    4.86069529626689
N         2.07010832575574   -0.98975012466027    4.57516923390936
C         2.70989685808153   -0.54501500940947    3.31530387866363
C         2.73597870657502    0.98843933446025    3.21835598236038
C         0.16236043520169    0.73161261304804    6.55065237295259
C        -0.14507250769327   -0.57855191857696    5.81472677872852
C         0.61331896304154   -0.78193247340353    4.49993685020784
O         4.70246224421698    0.59027187607295    6.74722973241981
O         5.54515824770164   -0.71718603157919    5.33073913828929
N         5.72976233686109    0.07424696392101    6.26203687814586
H         4.06705587987038    1.96329120105930    4.44816630439029
H         1.26328737080111    2.47737035350415    4.61093991043252
H         2.60869100643568    3.55630522989844    4.98800332346011
H         2.97159957513719    2.45433857986772    7.13658674194584
H         1.29829987123056    3.03859557285684    7.00366360414362
H         1.16434897358371    0.71316765968166    8.96900332427403
H         2.87499652624607    0.87085270463834    8.51012310114468
H         2.52098761906994   -1.36645507018888    9.22653735061343
H         1.08813564267197   -1.57254633362779    8.22635414989681
H         3.80452415692968   -1.90608360581992    7.52453097982074
H         1.29626740568194   -2.90200328988352    6.64353187317963
H         2.87757683252355   -3.66042005978528    6.53855538508264
H         3.48352419447402   -2.53339541096561    4.56784327564261
H         1.82527447816835   -3.08921494742497    4.27170229226405
H         2.21022924976150   -0.98308614106585    2.44224302476056
H         3.75076427070026   -0.89089847623582    3.32277941867923
H         3.43874277817064    1.27349560087050    2.43087310749775
H         1.75747465803458    1.38322514912242    2.93561440389787
H        -0.45317744465518    0.76249721104079    7.45957764775556
H        -0.16327145064315    1.55639850622057    5.91486559782421
H        -1.20617788015682   -0.55446308708736    5.55579662213620
H        -0.00770868266053   -1.42720738165103    6.47500472109140
H         0.16856013515344   -1.64271582466727    3.98276624663448
H         0.42806643578516    0.09848734815992    3.88467977995287

