71
CSD_code = MEJHEQ | q = 0 | S = 0 | Stoichiometry = C34H32BClN2Pt | MND = 4
Pt        7.61321653804207    5.10760758976338   -2.32954485495360
Cl        6.30896131238108    3.20124748034052   -2.48766066306530
N         8.15453607956457    4.97623407342075   -0.38920409947768
N         7.44298623449932    5.78063614870465   -4.22559118219134
C         7.79621409980184    4.02124924310835    0.46322762885361
H         7.15217892045010    3.24592341956108    0.06573906056924
C         8.21143839828986    4.00062001995536    1.78299714600569
H         7.89283639306877    3.20440854591899    2.43584546454973
C         9.03908974037209    5.01736774231114    2.23846740960669
H         9.38339529298731    5.03040899820723    3.26158423961332
C         9.41562719893254    6.01553161052604    1.35867169485933
H        10.05760738548418    6.82072915180403    1.67976805003131
C         8.96576380761296    5.98937117652395    0.04214841937958
C         6.75315187872289    5.20506818133932   -5.20533375651861
H         6.24457099696254    4.28283311722421   -4.95089261789355
C         6.67614524562301    5.73730863631016   -6.48031137648317
H         6.10264217841944    5.23324468936910   -7.24102297343543
C         7.34632200567559    6.92216049295563   -6.75100413416902
H         7.30574785668561    7.36568047366693   -7.73447275306474
C         8.06786035331577    7.52661626366121   -5.73804901432680
H         8.60060272582516    8.44794202469705   -5.91388157971078
C         8.11204582839863    6.94730466891484   -4.47361679894549
C         8.69137525846668    6.68733059562440   -2.19791222721173
C         9.28961386025792    6.98885534858052   -0.97297320813846
C        10.07431490682790    8.13239357994040   -0.89102294137400
H        10.57010060334853    8.40447182244264    0.03081938101881
C        10.23197008677426    8.97220739015177   -2.00524370175980
C         9.60332477605135    8.64617124690886   -3.21761571958123
H         9.73781597517786    9.31066402077908   -4.06018409348423
C         8.83848024457457    7.49197655109489   -3.32929536698260
C        12.29511670887542   10.27205159807808   -0.87729769634632
C        13.26512647724237    9.25684080136737   -0.90241437106121
C        14.29683877229714    9.24701345673668    0.02300533555631
H        15.03829892260254    8.46066812760381   -0.02222850493309
C        14.40237842513412   10.22265406657743    1.00298374971531
C        13.44651357326339   11.22646662508726    1.02886622038657
H        13.51383785678881   12.00041754913642    1.78152130470792
C        12.41133522517674   11.26690120905039    0.10738610620559
C        13.23607967677972    8.16781945679491   -1.93880221913780
H        14.24949750794419    7.86870703237693   -2.20085758033185
H        12.71877355401866    8.48566043326099   -2.83909993270041
H        12.71891422187562    7.29094512775976   -1.54785295006756
C        15.51361373651562   10.17977874910891    2.00739221253234
H        15.63848668418532   11.14524268501146    2.49178581986322
H        16.45174028989618    9.89928109767657    1.53235150217236
H        15.29471946482312    9.43809366147833    2.77654659790675
C        11.40119018496552   12.37334778853343    0.19901133258113
H        11.70726437137684   13.11340180750198    0.93496151239959
H        10.42881162764727   11.98023527954861    0.49424117818792
H        11.28058303872592   12.86406335214838   -0.76403233854007
C        10.74330775250197   11.48217960675786   -2.81960669398768
C        11.69516407842969   12.06356968561644   -3.67344001845654
C        11.34121279291013   13.10794839086082   -4.51393555240919
H        12.08936770652718   13.53639359047231   -5.16713557519575
C        10.05314446235150   13.62018888708529   -4.53228832549642
C         9.11508649140914   13.05586129103173   -3.68086057964099
H         8.10635461237290   13.44654547974722   -3.67242725846976
C         9.43934568998157   12.00352308327595   -2.83910994277626
C         8.36181335419558   11.46068968347695   -1.94175697279861
H         7.68773696039591   12.25889683565359   -1.63580954169390
H         8.77756959842728   10.99158157907998   -1.05511596689799
H         7.77351160798783   10.71122960832773   -2.47224776603907
C         9.68425703566384   14.76828683584261   -5.42182841216144
H        10.41481927543833   14.89621951063905   -6.21689452646232
H         9.64593872398060   15.69164135238461   -4.84285615640921
H         8.70254471763267   14.61301919815448   -5.86530195784609
C        13.10238182209686   11.54324119082638   -3.71735785669615
H        13.72908657089238   12.18169123097868   -4.33573758434870
H        13.12508549427475   10.53667948073327   -4.13383279899711
H        13.52650216260599   11.49663679411204   -2.71715843261325
B        11.10451258718294   10.26422247630301   -1.89890079142009

