78
CSD_code = MEJHAM | q = 0 | S = 0 | Stoichiometry = C35H38BNO2Pt | MND = 4
Pt       14.87393194193517    5.94735533225180    7.26783238868111
B        10.08860664336568    3.02641408813259   10.25527825171355
N        14.73894509472012    4.28948594819011    6.26711929544672
C        13.29908308897915    5.16135909715106    8.17479218925323
C        12.57898606763111    5.73273425592955    9.21178613819023
H        12.81073450827255    6.73775441026701    9.53318065049401
C        11.57162710385998    5.02244204154635    9.83484418341716
H        10.99844112184847    5.49116164808862   10.62358037044042
C        11.28802452937252    3.69182122123928    9.50331119552639
C        12.03640530527027    3.08215997383221    8.48276590033448
C        11.87451307765177    1.60437185566931    8.26187912504068
H        11.48825374739098    1.13645476889486    9.16227580375299
H        12.82955808982627    1.14329301841149    8.01910961057658
H        11.16184921706227    1.39594840473454    7.46397726462250
C        12.97801213054488    3.83992366579798    7.77005106535604
C        13.73241773233424    3.42865866497416    6.58910388491659
C        13.46776504994946    2.34779791472423    5.74655669483086
H        12.61936467165567    1.71426369643596    5.92789416216307
C        14.26791719288781    2.10488736098843    4.64542611071855
H        14.06029699808478    1.26692081444999    3.99732445510827
C        15.33216561118285    2.95562557191452    4.38396070642889
H        15.98922585512179    2.79302443218384    3.54511262322074
C        15.51338345869204    4.04644168820151    5.21115536275584
H        16.30348001010403    4.76222546424713    5.02665045564987
C         9.09186227045242    2.08392688612113    9.48965002914471
C         8.53024924529648    2.47321740161933    8.26363889955855
C         7.67018380023590    1.62414596927941    7.58176251248818
H         7.24467997970148    1.95044396334932    6.64199891666944
C         7.34435823660165    0.37180053289336    8.07483923788130
C         7.89353021138438   -0.01314867428371    9.28997293136398
H         7.64389802604778   -0.98493868658228    9.69439122029522
C         8.74457852194398    0.81925145780529    9.99738553415322
C         9.30888337851271    0.33320394246573   11.30149595436455
H         8.88419327813762   -0.63225900498611   11.56714723273901
H         9.09605884646942    1.04108969116856   12.09924697456073
H        10.39115700449978    0.22277095548135   11.24001944919626
C         8.82301666554170    3.81731494183003    7.65818498862554
H         9.73703258330547    3.77619592588508    7.06579024038324
H         8.96279378531631    4.57715601762542    8.42121049864775
H         8.01018640175459    4.12226148887750    7.00171571260789
C         6.42106517240805   -0.54779184813764    7.33436724045270
H         5.54600713613979   -0.77669513629104    7.94198985504180
H         6.92243834103858   -1.48845793324609    7.10810926992244
H         6.08786427779106   -0.09843689511316    6.40202932144928
C         9.87514667628727    3.41258422374082   11.76321911422012
C         8.66014749421708    3.94581050740239   12.22322199069169
C         8.50969527059623    4.30805040523243   13.55307127518642
H         7.56735910490142    4.72343677371602   13.88436085626202
C         9.53731726636814    4.14746757109193   14.46938206143979
C        10.73651305490156    3.61658856434333   14.01824879377825
H        11.55020727019298    3.48251577712476   14.71836375604627
C        10.91810158819203    3.25954732899572   12.69185929935446
C        12.24920297920115    2.69874372430182   12.27774333049111
H        12.79172428311339    2.32464532204781   13.14362095789306
H        12.85134250425566    3.47560463405968   11.80767213330395
H        12.13512187741846    1.89113527901606   11.56007058250047
C         7.51359254984489    4.16684827905558   11.27947946880527
H         6.64620359129401    4.55068061683284   11.81186323585048
H         7.23776486268208    3.23807036935730   10.78499830538078
H         7.78650192971547    4.88420510734645   10.50690844441959
C         9.35375596072396    4.51237825246742   15.91131802968270
H         8.57253149695059    5.26017479725720   16.02716620792925
H        10.27916023015307    4.89903759500388   16.33325265363433
H         9.06608536159799    3.63057528428105   16.48557037872882
C        15.46235058899176    9.78361958545141    9.18742044643198
H        14.57306657149541    9.58828752950675    9.78057310289664
H        15.32016228657645   10.69666986663625    8.61352417656622
H        16.31356141276736    9.92548675032336    9.84966724686427
C        15.71816736781250    8.61667283622411    8.25461421996078
C        16.83067218908763    8.71207163223034    7.42153989005099
H        17.43368188989650    9.60388812355151    7.49914657937061
C        17.23088146634264    7.74346423688419    6.49533716407049
C        18.48063297171152    8.04404751746162    5.69184221587397
H        18.69921256614720    7.21719276653854    5.02051688666072
H        19.32483575804203    8.19752358918470    6.36061718888072
H        18.33776690417302    8.95192465234114    5.10943474139210
O        14.88729171060103    7.66386057818696    8.33150976817726
O        16.65051555328474    6.65321358875201    6.26785158902662

