33
CSD_code = MEJKUK | q = 0 | S = 0 | Stoichiometry = C16H11Cl2HgN3 | MND = 4
Hg        1.66776315597065    2.30098817755131    1.44877585104540
Cl       -0.38964332962501    1.33417772921948    1.47154532979269
Cl        3.69955381747379    2.49811948135148    2.46564494102397
N         1.17341799302480    4.80027612536377    1.50266821815436
N         2.08851928008901    3.32325592399979   -0.65003246707176
N         2.47913415573728    5.12490757021686   -1.87757969886032
H         2.54607512425099    6.09263600444539   -2.14525493509342
C         1.54104475657359    5.45199581024320    0.41522993950798
C         1.46680091403452    6.86066629444379    0.32096250377583
H         1.76891331267091    7.36721144689955   -0.58240585610836
C         1.00526301528796    7.57590942989833    1.39049506428285
H         0.93750604048403    8.65380444525952    1.34972829491090
C         0.61368804091179    6.90182619422609    2.56346018106679
C         0.71812470031062    5.48070202277840    2.57004598133440
C         0.13347190008469    7.56071783944245    3.71229283714091
H         0.05836363053062    8.63836181625282    3.69974903667471
C        -0.22668003388374    6.84308175983557    4.81892609532570
H        -0.59294367227617    7.34976668155023    5.69906138527625
C        -0.12440355942789    5.44069381198224    4.82543369404405
H        -0.41415662094425    4.89524821382180    5.71051826674886
C         0.33589854100596    4.77045245722758    3.72747724864640
H         0.42004625693969    3.68911762556690    3.71421812646472
C         2.02959208450406    4.63882796371437   -0.68727032622078
C         2.59794546976806    2.91570686617147   -1.85012988582181
C         2.85421655611586    4.05440912378566   -2.64675568862745
C         2.86719707891030    1.63690391346103   -2.33069742952767
H         2.66835426898869    0.77157389258871   -1.71645171997723
C         3.38976825879122    1.53847263648802   -3.60071594765502
H         3.61380435486425    0.56536285414754   -4.00991183480916
C         3.64230063985203    2.67138463727339   -4.38333789248274
H         4.05383480829111    2.54073122053128   -5.37252541734390
C         3.38101962274328    3.94618421051936   -3.92554153305844
H         3.57790943794707    4.81702581974267   -4.53152236255874

