112
CSD_code = MEJPAV | q = 0 | S = 0 | Stoichiometry = C41H64FeN4O2 | MND = 5
Fe        5.15981479341556    6.70209533037860    5.24459419115352
O         3.43421697932125    6.70295608642975    4.14489561964829
O         6.84264297449226    6.00663680787310    6.16739757850028
N         6.24366955594296    7.16433093698269    3.53285952430126
N         5.40485738171860    8.94072314087821    5.60353313224314
N         4.13360439638254    6.39301741045301    6.88981638263453
N         2.02923724050561    5.72625721529567   10.45959471014002
C         3.24691063878176    6.94413301967235    2.88175924576036
C         1.96997686879281    7.28950933760115    2.34493250292689
C         1.87295297536295    7.60049484843718    1.00406247619826
H         0.90967631150053    7.87717679713181    0.61023449970001
C         2.94908704894312    7.57788778104077    0.11801975780340
C         4.16936739656940    7.17176070249841    0.62730409744553
H         5.03512356873910    7.08762023698420   -0.01259692150801
C         4.32172835635222    6.85200293697551    1.96553213996307
C         0.72920685188501    7.22813246606169    3.22944274382207
C         0.90366390222966    8.13285450235392    4.45553562341316
H         1.79127975649981    7.84050726678263    5.00396888340462
H         0.03783959963677    8.05261933513706    5.11114253912741
H         1.00469572000735    9.17113649969895    4.14339186326541
C         0.55159698991308    5.76907602740877    3.67392573040399
H         0.32131728330156    5.14304344360782    2.81369953205705
H        -0.25912857731680    5.68201128090750    4.39572557719993
H         1.46795257343399    5.40124770296068    4.12409411300878
C        -0.55611031593586    7.66019132658192    2.51486829185252
H        -0.48830092322273    8.68974833643997    2.16932229281697
H        -1.38921271195472    7.59474552800905    3.21316261747267
H        -0.77966951613293    7.01294021065982    1.66988024849435
C         2.73273920269700    7.96378840667999   -1.33714219589962
C         2.19705516664550    9.40109796838373   -1.40754127774216
H         1.25104881279602    9.49509702561188   -0.88176033328057
H         2.04231199790088    9.69704633637218   -2.44365806518077
H         2.90800213365338   10.08892398159860   -0.95376451187838
C         1.71677706627868    7.00327146973217   -1.97131421370113
H         2.07860333892180    5.97937197900118   -1.90443790418246
H         1.56528803814463    7.25014525744163   -3.02074146564819
H         0.75641027407884    7.05720692920217   -1.46624847480177
C         4.02311924389649    7.89957334256576   -2.15932994139211
H         4.77661880070228    8.57219372610198   -1.75538248321485
H         3.81764760052896    8.20011765644413   -3.18533168938455
H         4.42263644817120    6.88835372826491   -2.17912263538345
C         5.65501307912603    6.35752939797728    2.45109106187869
H         5.54614736686462    5.33909079940555    2.85487072990439
H         6.34866984998449    6.31326831275282    1.59952549560891
C         7.66069471385544    6.80390317112064    3.69147354632568
H         8.07915976325151    7.44799514207278    4.46828657242169
H         8.20008135874051    6.98387733008718    2.74943093012894
C         7.40602286556582    5.07469449325903    5.44702547486269
C         7.65411578945355    3.74829034514088    5.90671955222969
C         8.28714594706793    2.85933035217470    5.06062441589842
H         8.46945007316101    1.85893436413815    5.41579783642770
C         8.69983209132963    3.16710698372208    3.76500999602620
C         8.46375485701153    4.45710539371972    3.32208783202722
H         8.76638782101073    4.77181218676696    2.33437044433368
C         7.85000342359538    5.38605082746859    4.13955132907951
C         7.18075489698825    3.31660695024282    7.28855616204459
C         5.64552961030388    3.31992976712006    7.26492932399170
H         5.28206970595194    4.27282671406671    6.89046724222078
H         5.24087538591478    3.15460422911097    8.26255728416242
H         5.28234207995684    2.53198895091256    6.60698968316563
C         7.70541789384584    4.29726060387350    8.34384004923024
H         8.78946875955760    4.22465991435510    8.41144070384691
H         7.27875965464517    4.07317601463883    9.32037029055483
H         7.44132972777674    5.31012611094109    8.06253171146442
C         7.64697731372361    1.91312790852321    7.69253301744097
H         7.23117648947041    1.14874566227105    7.03971293982136
H         7.30634523633866    1.70480968914845    8.70578306263310
H         8.73249205555644    1.84115908741164    7.68045209002958
C         9.37496795753422    2.09941934999020    2.91794476077499
C        10.65392794892688    1.62526918181715    3.62259051239942
H        11.33122469400281    2.46361671294066    3.77233313596563
H        11.16101811943206    0.87264745455497    3.02118284987342
H        10.43083342317612    1.19215356021630    4.59356437166716
C         8.41574852023518    0.91430381420629    2.73625695352993
H         8.15115980748523    0.47215220487035    3.69268613861494
H         8.87710175869069    0.14442482869574    2.12009089009550
H         7.50016989135723    1.24486851954196    2.25003085269548
C         9.76239531739917    2.61224738352039    1.52791971185717
H         8.88475940230051    2.93832934571265    0.97444067714963
H        10.23875376893933    1.81250447325475    0.96327897657704
H        10.46594264172341    3.43861572517700    1.59982848877340
C         6.12096634857786    8.59780858239926    3.26449150753657
H         5.12177238927048    8.77801986886258    2.86387287788972
H         6.85381985683654    8.92112825780555    2.51009887209253
C         6.31544693160557    9.39863332058747    4.54702682783643
H         7.33771376157267    9.26695002445458    4.90558229304597
H         6.16748453053438   10.47022715815782    4.33982824999692
C         4.09052641917901    9.55132835937060    5.43381233085164
H         3.67232191395702    9.26462957166715    4.47418412048851
H         4.14738136394174   10.64773310057580    5.49206788354060
H         3.42463513191928    9.18749730684674    6.21259018274859
C         5.95085520437083    9.32761188352875    6.89997755153670
H         5.23072967549761    9.09401368108047    7.67988937684734
H         6.17353830828009   10.40323190084413    6.93782605492199
H         6.86120217176094    8.76231928697824    7.08646880732458
C         2.86233033205502    5.98511356834668    6.89566753192642
H         2.42043844767833    5.85207173035329    5.92276137563521
C         2.12970287485940    5.74802390737367    8.03472438363043
H         1.11148023123286    5.41570339679452    7.92898405703233
C         2.71598419769984    5.92534520414859    9.30045959952654
C         4.06196647584147    6.33466484167283    9.28499125522348
H         4.61430595933821    6.47810319676383   10.19780762754036
C         4.70456500021716    6.54881813622061    8.08923131653510
H         5.74656313272065    6.81806271089039    8.06762661572254
C         0.67425705626442    5.23260847982271   10.42319418628941
H         0.04149705821685    5.89812172089971    9.83181604494020
H         0.27354461811536    5.19864768719204   11.43333691332348
H         0.61933013703813    4.22562027305329    9.99538039349170
C         2.71999959975802    5.77330534560729   11.72548483928864
H         3.53312927120669    5.04139050547815   11.76801079047719
H         2.02146279503916    5.55405833225756   12.52896317172545
H         3.13707250070064    6.76840108047612   11.90134206170915

