67
CSD_code = MEJVAB | q = 0 | S = 0 | Stoichiometry = C28H28Cl4FeN4O2 | MND = 6
Fe        8.46439675586759    9.77865678523833   13.12724417674414
Cl        7.88394492514247    5.88856948704522   10.37136518374450
Cl        8.14252818365592   17.07999200066784   13.24665041693754
Cl        3.39415168401133    7.89630635543731    8.18941198229674
Cl       11.55092832553922   13.15650815117172   14.65193320015297
O         9.31071388333307   11.41651434721083   14.03467247791567
O         7.69585991392059    8.18598936510568   12.12358547325055
N         9.51667390553701   10.37152341700620   11.32318721943991
N         6.91649017440888   10.99206893116864   12.35811700726327
N         9.93142699825976    8.66301875259244   13.76443244174251
N         7.55313084678483    9.26048894343891   14.76916325908922
C         6.36905444438320    7.60896311963712   16.03671360653289
H         5.87663172308182    6.64935940266356   16.04442093009872
C         5.64102103746306    7.00115948464338    9.39518017069455
H         5.62342195359626    6.18268359460137    8.69346555526243
C         9.98175087012850   13.66624940982194   14.11802259589717
C         7.11167975323679    9.59632455185070   17.09962548841730
H         7.21755611494726   10.23546434807312   17.96209762048710
C         9.48371330178348    9.40116550533555   10.23328805162597
H         9.86075847579759    8.44687238849228   10.59071350450280
H        10.09901131927468    9.73974745711503    9.39017430381276
H         8.46768102150087    9.24952103889775    9.88290756033349
C        11.79856935972407    8.33941144055529   15.21805081932516
H        12.45335805339702    8.75540375154455   15.96743415928822
C         6.64486043273287    7.09721232675140   10.33092274369771
C         6.45013702046838    8.38066445313511   17.18662144772595
H         6.01962857264995    8.04417034418446   18.11698743060832
C         7.74080432671156   13.10995672820488   13.45441444055126
C         9.01570890575208   12.65595189591347   13.87997716958808
C        11.08826349784715    6.57341167786424   13.79675035616374
H        11.17028812855404    5.57120755680384   13.40628663049822
C         4.66128812047228    7.98161142514526    9.36882656508045
C        11.96628701237056    7.04009206857816   14.76312757823075
H        12.75493642010432    6.41226102223012   15.14903735772955
C         8.47797924409170   15.39852254806588   13.49921198029180
C         6.63449578829902   12.10831917568909   13.27702969814950
H         6.40264247621800   11.66254765120367   14.25001360389332
H         5.74049218907253   12.64836388779343   12.93086617199702
C         9.73196650007181   15.00828975199233   13.94074917715170
H        10.50216042379575   15.73738251194951   14.13473558594617
C         5.66612919793622   10.21522792481325   12.24705679527816
H         4.83341346357696   10.88969298865153   11.99980711899459
H         5.47246741647311    9.78443640325724   13.23465002983522
C        10.09366407356138    7.41366530431634   13.33073296536413
H         9.38096338807770    7.08433459348227   12.59101289362409
C         4.68870547508968    9.02582459972137   10.27679864918583
H         3.91058181433506    9.77441279009779   10.24632588344279
C        10.91688276614368   10.65740156931181   11.62884681797948
H        10.97887281387382   11.26872878856384   12.52408059980182
H        11.40637910720667   11.17764557562243   10.79692682059281
H        11.44179393949001    9.72378089813746   11.81515025841165
C         7.49173878466254   14.45606681133816   13.26120111422983
H         6.51620913762919   14.78357487138992   12.93270957840457
C         5.69249246207038    9.11189811511993   11.22568060618379
C         6.93013014981270    8.08178323857461   14.86632720808382
H         6.89245305861878    7.50259378017807   13.95788937496640
C         7.32512178530256   11.48425583157348   11.03346591614109
H         6.86680337403569   12.45902585232203   10.82442713193396
H         6.96415013943040   10.77226925419284   10.28808894877138
C        10.77495731253833    9.10776736074405   14.69550603309299
H        10.62132406236666   10.12722411252362   15.01024507633175
C         8.84236307041641   11.60966030113359   10.91800065348479
H         9.10299923591599   11.87350361566797    9.88192866451352
H         9.18739434098947   12.41374314728267   11.56656918689841
C         6.72957200213633    8.14645373009992   11.28323555298390
C         7.64144372896343    9.98978355218448   15.88546102120838
H         8.17510181535508   10.92161793487460   15.79285995809881

