45
CSD_code = MEJWEF | q = 1 | S = 0 | Stoichiometry = C12H18CoN12O2(1+) | MND = 6
C        12.83181736702635    6.93115365517253   12.52287851501069
C        12.93746537044946    8.56610578089588   13.98988354905653
H        13.04081926715157    9.55311418119819   14.38767615516395
C        13.33878524070468    8.95148012166347   10.49873456133015
H        13.45596309783548    9.82893571341177    9.87470038010254
C        13.16238676800445    6.35136333742628    8.17099812389160
H        13.22209235700714    6.16062983788242    7.09903599610021
C        13.79136910754586    8.66343685649486    7.71023025270799
H        13.94645248551556    8.26661200055549    6.70977885767556
H        14.71051653093853    9.14789130954273    8.04348854004691
H        12.98798610958065    9.40196846849257    7.67213988250285
C        12.44708826511495    5.16778671229381   14.28824900321254
H        11.42876568685325    4.83962495212019   14.07842706296954
H        12.58546911037897    5.21473351849756   15.36693782436665
H        13.15490483269449    4.46123937078766   13.85924167690230
C        14.58066658297816    5.43090539800573   11.11058759283171
C        16.11407654849646    3.91631507893319   11.54754706480720
H        16.55221508765036    2.96933715234944   11.78072556779103
C        12.63266211951039    3.30613748749569   11.46816728126161
H        12.05408578428525    2.39513791670631   11.56022649993987
C        10.20143470756565    5.71397150154072   10.75760741726641
H         9.12315048069571    5.82961816664787   10.64373127498939
C         9.79541212500293    3.41726236830608   11.47416669939701
H         8.75992910943112    3.74745570830629   11.44226253927783
H        10.00798761703600    3.01979470196310   12.46782536844908
H         9.93274611210010    2.62740514285933   10.73293671075356
C        16.27135087036029    7.28758563196081   10.84926927867173
H        17.31875881081415    7.32760379137070   11.14323993746754
H        15.69987657862776    8.00679925196384   11.43290716440161
H        16.19445702666489    7.53140279314346    9.78926607792929
Co       12.83418268366572    6.11730549698957   10.80430865381282
N        12.66949162218904    6.49410011391826   13.78303792366511
N        12.73292974067875    7.48836713956941   14.67509706754968
N        13.01355480578985    8.27192459209476   12.66161693116091
N        13.21711301984320    9.24473996917439   11.75085898944228
N        13.36802675590588    7.73800381344863    9.97093471097256
N        13.44690298499933    7.57111680065550    8.59137846984057
N        15.82157801477649    5.94599678171564   11.09740012163153
N        16.75414599877737    5.02484162374707   11.36227072336398
N        14.77352541528174    4.11837904195543   11.41057316485842
N        13.90465388924491    3.09767727706021   11.55389241679062
N        12.03191825393264    4.47693378277392   11.32635192208379
N        10.64885239022300    4.54762156650841   11.18761787613048
O        10.96944244821862    6.65823462908430   10.50557268037751
O        12.85419081845291    5.44144946331570    8.95972149204382

