71
CSD_code = MEJXIK | q = 1 | S = 0 | Stoichiometry = C39H28OP2Rh(1+) | MND = 5
Rh        5.54818884682770    2.26081088127941   12.35306099788370
P         5.40536343051489    2.62223120183565   10.09405316355452
P         5.51627425890040    2.12984818772474   14.63889676211639
O         3.12662171985187    3.97443915285043   12.60948033500489
C         7.44326526714026    0.88747613904447   10.16486234772949
C         7.17194270251547    1.06571177417732   11.55321785655406
C         7.25560472113918    0.99861768338866   12.80002830073525
C         7.70320977704355    0.67452283050581   14.11433004341436
C         4.05822017743031    3.32283630328690   12.51105112138086
C         7.36466206586029    0.94381288339505   16.49738811228935
C         8.48030993069464    0.15425783380548   16.72403462311419
C         9.19781057463563   -0.37567956194693   15.65917821433404
C         8.82055972043674   -0.12383248533784   14.35271750604611
C         6.98045616517390    1.20397702301164   15.19221039141329
C         8.47796168964704    0.07752579071356    9.70030698220018
C         8.67047086011906   -0.04751903556651    8.33653234108140
C         7.85248950594473    0.62317534056801    7.43631061037055
C         6.82527149077167    1.43558879411560    7.88852578031040
C         6.61952131571661    1.56140411566735    9.25265017306644
C         3.87451827084033    2.48191784233089    9.14143446844205
C         3.53758569044412    1.27771193432170    8.52882219363770
C         2.34104498737206    1.16686863515759    7.84400925790946
C         1.47377500006617    2.24594632955952    7.78142266669403
C         1.79669217714990    3.43822957555069    8.41154699600721
C         2.99079436158789    3.55834195992398    9.09708985754376
C         6.04422125742715    4.28571161506191    9.74112504199974
C         5.92877346831746    4.87770428200102    8.48763150812101
C         6.48020109316533    6.12691263153947    8.26866311188408
C         7.15012490182093    6.78284938904758    9.28987248158021
C         7.27285608805134    6.19185739921643   10.53772404392210
C         6.72275798056289    4.94415359598640   10.76416365715143
C         4.15727808944331    1.05677289135282   15.18107999128247
C         3.54398950565531    0.26679464870964   14.21152996900061
C         2.54098081070026   -0.61379695415728   14.57085543223376
C         2.15099852707611   -0.70914588545469   15.89767668336000
C         2.76343842951858    0.07298012567846   16.86476291274591
C         3.76935904570962    0.95443712499335   16.51300890473053
C         5.43859261055753    3.60203697511859   15.68634576791442
C         6.61621953399518    4.22705455414953   16.08924035602250
C         6.55644953975398    5.38876552007614   16.83698133182145
C         5.32805137288322    5.93587081372546   17.17255723323692
C         4.15489111295684    5.32679680099116   16.75381616933399
C         4.20517772121537    4.16587104766725   16.00500545348333
H        10.06314568528265   -0.99059288266521   15.85266323277102
H         6.80678159462407    1.35936297026241   17.32359195807910
H         4.24213148559925    1.57131959565692   17.26422936589807
H         9.11311683103174   -0.44442504737036   10.39968229024564
H         9.38031470388765   -0.53344717752010   13.52576086704691
H         2.06154959799918   -1.22346640391856   13.82017831620038
H         8.01858580437759    0.51108814766359    6.37609772019032
H         6.18654667335342    1.95539809327934    7.18965907897514
H         6.38662988520005    6.59159253845098    7.29900819638670
H         9.46622385318670   -0.67631080031875    7.96809342601797
H         3.86083483525088    0.35651354873356   13.16821751834170
H         6.80853294270775    4.46733469660874   11.74621311790007
H         5.39801560291168    4.36908781329827    7.69523555101218
H         4.21507859864492    0.43616291755404    8.58644074572407
H         7.57213577523080    3.79740799937353   15.81968106567117
H         8.79351849569590   -0.05169704081947   17.73580019514258
H         3.24920386332219    4.48557479497156    9.59142379232417
H         1.36573506261433   -1.39366427667739   16.17899633474727
H         7.57587034131025    7.75846885873387    9.11315182021887
H         3.29360215541716    3.68726586848216   15.67244122098298
H         2.08410376465575    0.23721133196318    7.35939311924557
H         7.79390935056394    6.70530246527588   11.33146819204468
H         1.11607730532365    4.27474150185133    8.36837329751915
H         5.28443994585252    6.84110594265078   17.75823534943667
H         2.45517407316074   -0.00444316463729   17.89622995192606
H         0.54229887670465    2.15701454864314    7.24402806746732
H         3.19967678400402    5.75874748127365   17.01043444355256
H         7.46859038099860    5.86889792718448   17.15737066605221

