61
CSD_code = MEJXOO | q = 1 | S = 0 | Stoichiometry = C28H28ClP2PtS(1+) | MND = 4
Pt        6.02178647132381    5.86723460490150   13.12877580902946
P         7.98738705688790    5.22225020333915   12.12244763357368
P         4.19514503995871    6.21883801312218   14.45269408656087
S         7.31319861547004    6.87371642991498   14.81161576195669
Cl        4.66181058923293    4.88663929649487   11.56670741978349
C         8.59346903348634    5.64604148840113   10.47671544936160
C         9.93668537388081    5.87168546369101   10.18911778960254
C        10.31465263772001    6.16258714098614    8.89036814685071
C         9.36441411323425    6.23075856720743    7.88369298593384
C         8.02633973834745    6.01050001815837    8.17097122555161
C         7.63738572039127    5.72060283873338    9.46537588322293
C         3.17421570915369    7.61601534950006   13.95317806813430
C         3.57056266152612    8.33196139331683   12.82774309470151
C         2.82850272640750    9.42235289608376   12.41205328629916
C         1.69763139536981    9.79576204128223   13.12097343562715
C         1.30372972677667    9.08233981276653   14.24396381503468
C         2.03773330267301    7.98948805877022   14.66534232395865
C         8.75286346413038    5.73187900748612   14.73196669663881
C         9.31483818297187    5.75184950912158   13.31823115404556
C         6.34200819658002    6.22982814804971   16.23674940644242
C         4.90308782736412    6.71307755040814   16.11040338925559
C         8.07268291052633    3.41450259058352   12.24642664870147
C         7.15260698295028    2.76798490853216   13.06768486270907
C         7.20393524570325    1.39495509464187   13.21774920562165
C         8.17134003883895    0.66419426027604   12.54600368415876
C         9.08402342210834    1.30450853248986   11.72217314581741
C         9.03895379802923    2.67838522413177   11.56916502172223
C         3.07109143019511    4.84198591568439   14.76869522973104
C         1.96698424883530    4.68591779598122   13.93315377061837
C         1.12526943579037    3.60276928077710   14.10124074106353
C         1.38581771108998    2.66642435457791   15.08962575022324
C         2.49518521569496    2.80820964948744   15.90787782706369
C         3.34354508700186    3.88823158327542   15.74613087079912
H         9.48563333769899    6.08488570837652   15.45891410075545
H         8.41652044789273    4.73004182906686   15.00576222429814
H         9.63467456598168    6.76463195509401   13.05580332639989
H        10.17521885638229    5.07988546791501   13.25355816159813
H         6.40501296163765    5.14042792596237   16.22040476588125
H         6.81088343650940    6.60955805370325   17.14571885723740
H         4.29429894877414    6.31863442209002   16.92763157372879
H         4.87478694090916    7.80546525528055   16.16145684710729
H        10.68473691310357    5.82217450585124   10.96703451840095
H        11.35563812791313    6.33676875017270    8.66389817019070
H         9.66886951746886    6.45921714555679    6.87400661423735
H         7.28714919499260    6.06777766445002    7.38702662240378
H         6.59630973228728    5.55197271484044    9.70809673952809
H         6.37378596236154    3.34756340828294   13.56526061141176
H         6.48580935688371    0.89282649854372   13.84810613059089
H         8.20779916326111   -0.40849534949690   12.65658340915493
H         9.82887318173682    0.73036756330345   11.19282156007124
H         9.74025063165991    3.17950336501378   10.91673994014455
H         4.45497894965788    8.01363349366804   12.27975835637543
H         3.12727954415259    9.97775128810582   11.53646948302215
H         1.11612250649465   10.64467510225071   12.79598612514650
H         0.42016091863215    9.37792653251755   14.78864617819638
H         1.73309660136304    7.42124055579935   15.53351204716819
H         1.77794392319306    5.41377722599841   13.15677477317344
H         0.26691973214237    3.48610229886028   13.45794316262058
H         0.72735753022124    1.82152566804084   15.21908820498066
H         2.70198260153034    2.07337886540433   16.67124353121839
H         4.21202330548637    3.98660506314902   16.38334034518011

