93
CSD_code = MEJXOP | q = 0 | S = 0 | Stoichiometry = C42H42ClF5P2Pt | MND = 4
Pt        2.32320108006073    0.08995731798650    5.27704052414238
P         3.74338012932557   -1.10216994617932    6.63510403722845
P         1.27101933888236    1.54259788102663    3.85222506970730
Cl        3.43453672186023    2.03639149347516    5.95032641992371
F         2.17273469558912   -1.58404601387309    2.52967193208703
F         1.04926344233629   -4.00351794530977    1.98930258120198
F        -0.31613354271907   -5.34090851168245    3.94404936149304
F        -0.56505408258257   -4.22563550211967    6.42861422329085
F         0.55402848458711   -1.78641402907305    6.93538889485603
C         1.38399115485763   -1.61807375210779    4.74580999431651
C         1.48364405133864   -2.22460756939672    3.50037503357510
C         0.91889086843369   -3.45821220329408    3.20837691543994
C         0.22253497775313   -4.13986210485310    4.19966028682370
C         0.09550513464879   -3.57004013567134    5.46188459950946
C         0.66960687276516   -2.33196504867026    5.70227750057220
C         3.47832609470363   -2.89484619183234    6.79054320080775
C         3.70235507768414   -3.66955668998986    5.65342057112212
C         3.40709232147519   -5.01840567117931    5.65685466758994
C         2.87691805013142   -5.60772205748469    6.79454837695672
C         2.65646176015135   -4.84476517168828    7.92819692508716
C         2.95265199020341   -3.49232757730122    7.92888018838217
C         5.36893579402256   -1.04724928648330    5.82811406858969
C         6.51350860010286   -1.53483790011373    6.44910967771266
H         6.44789053181078   -1.96528147061728    7.43877935859982
C         7.72980542505022   -1.47091628629016    5.79489596494871
H         8.62032956099024   -1.84673071819085    6.27718029579503
C         7.80909868784369   -0.92496950070627    4.52290509224381
H         8.76293091915812   -0.87406733203564    4.01893277695306
C         6.66933304932431   -0.44657114964767    3.89802037130924
H         6.72982486776259   -0.02205588802028    2.90697106832965
C         5.45082121863121   -0.51040175803359    4.54842688344902
H         4.54783416702256   -0.13449608987468    4.07079502862386
C         0.09253598993960    0.94455834504949    2.59712545245296
C         0.06647362736918    1.46923126283962    1.31019997413832
H         0.76750596609557    2.24271234201916    1.02960415365097
C        -0.84972448265123    0.99771647585456    0.38736198272813
H        -0.86113632903779    1.40581503758343   -0.61258233274815
C        -1.74661780087964    0.00304547474741    0.74015410513246
H        -2.45517651506838   -0.36810282196360    0.01503512793835
C        -1.73020179312344   -0.51854618569812    2.02328439071097
H        -2.42747709009298   -1.29484144334765    2.30219668887403
C        -0.81444074536112   -0.05053794384268    2.94723902882283
H        -0.79110653661661   -0.46424554946978    3.94629008320303
C         2.50994705802235    2.43328169094768    2.87163660803206
C         3.34509093125750    1.65224220772017    2.07404781305887
H         3.18133797081545    0.58395358752007    2.02441931247112
C         4.36255034632427    2.23987463692122    1.34761483106113
H         5.00761945334507    1.62971023977481    0.73219941953972
C         4.55707566676003    3.61064697113088    1.41375008374734
H         5.35669552781994    4.07124648693012    0.85267272253271
C         3.72921034842922    4.38931693545432    2.20429158900706
H         3.88239929138154    5.45731245838121    2.25829627391099
C         2.70826843972278    3.80648470257001    2.93532718498024
H         2.07759378862891    4.42229021142858    3.55855487602671
C         4.03967516323633   -0.45520645665656    8.32501366337800
H         4.51669507271735   -1.21941174635469    8.94616876130877
H         4.72865512133114    0.38463910329750    8.20024350226737
C         2.72658451712589    0.03810137275486    8.93243023976397
H         2.28572715301483    0.75765336629287    8.24006623977779
H         2.02079611691251   -0.79113132346034    9.01958597031437
C         2.89995167930613    0.67913041746661   10.30930842940360
H         1.91291004829994    0.96347797156548   10.68005173399229
H         3.31131601522206   -0.06597360937533   10.99705155989098
C         3.80222071088421    1.91415813879259   10.33832782344128
H         4.79543230727727    1.65984372676207    9.96375595953929
H         3.91893957552442    2.22322163066288   11.38083094992104
C         3.25434593386341    3.09933566053835    9.53254802281006
H         4.00867536772505    3.89165496840204    9.54676651017805
H         3.10879891358252    2.80918517038425    8.49480742269095
C         1.99885400439360    3.63957085848140   10.14160818290338
H         2.15310988408745    4.14151214804334   11.09048109466304
C         0.76219326693482    3.55652697604030    9.67465394004846
H        -0.03764248215213    4.00321658329644   10.25546690834127
C         0.29658663792656    2.88765650826761    8.41964190126061
H        -0.27620235655469    1.99812729906164    8.70358284948052
H         1.14491900908076    2.56927850225567    7.81782191626458
C        -0.60352000337097    3.80547636670077    7.58725594807380
H        -1.27176548773134    4.35729751574585    8.25372711004029
H         0.01405644369630    4.54326860235050    7.07167871262024
C        -1.47176840285208    3.04112846401090    6.58527575307948
H        -2.02818773928982    3.76132867554822    5.97892059308040
H        -2.20212796502746    2.44760812195722    7.14111276552416
C        -0.70916129051067    2.09481018812077    5.65815951895546
H        -0.16861054245610    1.34660910712128    6.25239081794285
H        -1.43827642205231    1.56321404374601    5.04057762998938
C         0.29108598787663    2.80753501747133    4.74980427108872
H         0.99783469614390    3.38455875127781    5.35071423999568
H        -0.21491227862091    3.46726076456017    4.03783731322587
H         4.10839687019619   -3.20139432717668    4.76597625946573
H         3.58194048607523   -5.61092482639868    4.77103938280070
H         2.63147931721050   -6.65889725426247    6.79371456810410
H         2.24006978152526   -5.30152702068080    8.81360646991560
H         2.76103433337231   -2.90447776997634    8.81369380443305

