57
CSD_code = MEJYUX | q = 0 | S = 0 | Stoichiometry = C25H28ClNORu | MND = 9
Ru        5.34215492113919    3.19531105455408    2.37442608072607
Cl        6.38228391938642    2.93864924289675    0.28192188772141
C         2.80138860807971    3.95209185271486    4.49966619285920
H         2.84304235612260    3.07347735121124    5.14016556455812
H         2.07065137916133    3.77249032314850    3.71282536972369
H         2.46009946061551    4.79986978819902    5.09692509580545
C         4.15066166647237    4.25091866229663    3.91266037334101
C         4.27993700391147    5.13664329253509    2.80796889426199
H         3.39178440721299    5.58576447044893    2.37637634396543
C         5.54797670874496    5.47409874927748    2.31793898234635
H         5.62964628122342    6.16514762230771    1.48335747502112
C         6.74153513087818    5.09198290214444    3.00900243630198
C         6.61855445367621    4.25532605502106    4.11054979590761
H         7.48985675483791    3.96751534463391    4.68522808963295
C         5.34246141444234    3.76539943556934    4.50573253153989
H         5.27371822121963    3.15128252006771    5.39947927609248
C         8.07268717935572    5.66434416317934    2.58228154427936
H         7.90816718799457    6.27547124335234    1.68748264242770
C         8.62969399705892    6.56864066275792    3.68651660176869
H         7.91494250630186    7.34881042538194    3.94252661540819
H         9.54959099058496    7.04117625321692    3.35026937154853
H         8.84793052292018    5.99390362242877    4.58414002111632
C         9.06469703082665    4.55984235636818    2.21756864505937
H         9.29384642511945    3.93967140218407    3.08153766185198
H         9.99000824635105    4.99588467211867    1.84804099124263
H         8.63861352310620    3.93191513397411    1.43751323107787
C         3.78482203281140    2.24099919676437    1.51585354231492
C         2.72845063788201    2.82829759224235    0.83358140939545
H         2.70722957722905    3.89962212490447    0.68045929187396
C         1.69774907913646    2.05827014647487    0.32100710198412
H         0.87889042646634    2.53648801976874   -0.19843942159217
C         1.70918562847346    0.67514503325897    0.45682482707425
H         0.90095438562187    0.08755025857952    0.04639984449417
C         2.76087964773419    0.05582083048436    1.09646600008942
H         2.78908239433857   -1.02066117764002    1.18330649660028
C         3.79461311694558    0.83258303036330    1.62496782990663
C         4.96984823819964    0.33113266661154    2.29248012824202
C         5.25542715428216   -1.12835004327938    2.44715178413402
H         6.22161727155817   -1.28978831258338    2.91877483337841
H         5.25421455158993   -1.60260934875794    1.46726228673601
H         4.47904222615720   -1.59738748738779    3.05027973245071
N         5.75974686855154    1.27086867287912    2.71427009780390
C         6.97328245828990    1.02264074572422    3.37507328452989
C         8.17207470393726    1.17655549374733    2.68609155113644
H         8.13768974309374    1.44150518359770    1.63880709278594
C         9.38255072408116    0.99901815522249    3.33070424182799
H        10.29312141534691    1.12526238568985    2.76723139220260
C         9.41212119832096    0.66290926607894    4.68084231709457
C         8.20809206513171    0.49666446500956    5.36882843775724
H         8.24760322154776    0.22739209941401    6.41257068639353
C         7.00234099821075    0.66674523345760    4.72444407274263
H         6.07291839966606    0.52856282747732    5.25854978102571
O        10.54410307901407    0.47266272206819    5.41525321353254
C        11.78978618519103    0.58993259713664    4.77153319443099
H        11.89127736248715   -0.13444118826633    3.95718044803049
H        12.53655482021208    0.37920365265512    5.53553557948743
H        11.94820009173926    1.60037655632175    4.38050720655289

