53
CSD_code = MEJYOR | q = 0 | S = 0 | Stoichiometry = C24H26ClNRu | MND = 9
Ru        5.44674482352113    2.52310423566823   14.14173535823429
Cl        5.06367770898892    4.80399283526234   14.54046461710149
C         6.38344509944393    3.35228225738416   17.45453225373391
H         5.70017183465507    3.01548246290704   18.23128911720946
H         6.04223177560808    4.32373495510474   17.08727696461502
H         7.37727761763570    3.48391452944570   17.88110072356525
C         6.41775139977508    2.38821713730211   16.31036102474318
C         5.50733139368390    1.34221666267442   16.20068015434697
H         4.77681456854229    1.16797372112927   16.98125428994116
C         5.51165531448862    0.50874470151132   15.05134760141057
H         4.79867303222910   -0.30933770547552   15.00768583641585
C         6.55211102546820    0.57994744544942   14.08959506143666
C         7.51432025435725    1.61120735918683   14.24705810764157
H         8.35946642664736    1.65561164539883   13.56746849564345
C         7.41320148577947    2.53717453759047   15.29483735373131
H         8.16917320627808    3.30766333519342   15.41212848076234
C         6.69793087489277   -0.46000285400588   13.00271773959245
H         7.48426827838978   -0.12550400342174   12.31629603697738
C         7.12701808898839   -1.79702344691543   13.61633954220616
H         8.05410628313459   -1.68225597671791   14.17448737982917
H         7.28470879400399   -2.53462794945922   12.83317836944682
H         6.36252301635887   -2.17252911184539   14.29337207240035
C         5.40697968881171   -0.61547497921255   12.19670914247420
H         4.60787383748403   -1.02474166938915   12.81099933797518
H         5.56920047648212   -1.28777595904266   11.35740722709655
H         5.09229680005788    0.35457221149521   11.81191090741178
C         5.52906182361758    3.06552729637580   12.19708826797559
C         6.65036418930912    3.47143815979769   11.48799711579165
H         7.60972395252590    3.54991005805239   11.98320144695664
C         6.55963098061182    3.79824341648177   10.14477775668211
H         7.44750224987574    4.10147863136953    9.60755304821472
C         5.33918348327255    3.75345765383569    9.47802983387655
H         5.28852278029800    4.02060146601090    8.43265884121657
C         4.19862451945597    3.38698048549404   10.15683383133768
H         3.23732793398944    3.37027010567925    9.66304477424100
C         4.29222359751784    3.04270580584788   11.50879115099279
C         3.20917104844979    2.65569629077629   12.35215018003430
H         2.17325604034931    2.62480448704821   12.02548877709957
N         3.54334160987390    2.37337064161600   13.57556763927428
C         2.59301414960323    1.96228856836128   14.51382311622366
C         1.71457953426960    0.91427768541683   14.24823764162789
H         1.75717219706926    0.41471770640271   13.29047729956150
C         0.81811624442601    0.50236369205019   15.21686933368055
H         0.14911437348896   -0.31955557414895   15.00472919585824
C         0.76451786856793    1.12761188003154   16.45604044293167
C         1.63487310397710    2.18533847222839   16.70541903058805
H         1.59528423960577    2.69035112493797   17.65999414213253
C         2.54367106730282    2.59949167365667   15.75399544978672
H         3.20729979339267    3.43508121915662   15.93659833780515
C        -0.22164604865666    0.69506535265491   17.49747664611376
H         0.23223436742571    0.70131315172212   18.48648684868028
H        -0.59912715536538   -0.30282514881443   17.28810510898082
H        -1.06789104998480    1.38232932075147   17.51583154637725

