68
CSD_code = MEJYUW | q = 0 | S = 0 | Stoichiometry = C32H29Cl2NOP2Pd | MND = 4
Pd        3.90711248869551    3.00751326004725    1.75322298614855
Cl        5.19177757089703    2.21838359868449    0.04923153972682
Cl        5.26210419255259    4.81706976088580    2.11394280778917
P         2.59815579886930    1.23843840980987    1.29163278238604
P         2.70565135337794    3.94320069083978    3.37764514958505
O         3.45711636585984    0.78364912240693    3.68516901255162
H         4.31769088074440    0.37702260820963    3.86201713744301
N         0.86847941090891    1.85630684827588    3.51958245169058
C         3.17603938053281   -0.48653913386380    1.22679163966282
C         4.53826281475809   -0.73759105681960    1.35662128260286
H         5.21633652548303    0.09991128390045    1.47050220265087
C         5.01733103577030   -2.03393904167640    1.30676441683415
H         6.07728264834552   -2.21957306801942    1.39918920552874
C         4.13998414635981   -3.09174905419006    1.13210598316665
H         4.51236451921658   -4.10457281006802    1.08817354581160
C         2.78182252881595   -2.84866463384522    1.01180755492893
H         2.09503545864922   -3.67183819227005    0.87590483515201
C         2.29719555901596   -1.55306149333853    1.06040760460519
H         1.23357888940594   -1.38059683352920    0.96563802004602
C         1.95454028988914    1.55954615820152   -0.38580644890254
C         1.64480106829887    0.59179343370826   -1.33298081338266
H         1.78174870317788   -0.45511770274326   -1.10794683168474
C         1.19038661984589    0.96904649791883   -2.58551563584307
H         0.96018759865669    0.21051184525158   -3.31948282239553
C         1.04339223219377    2.30747049918033   -2.90518131186885
H         0.69512213550775    2.59458132589336   -3.88618323492013
C         1.36734246463616    3.28036159231169   -1.97205068941236
H         1.27753886387024    4.32633490424570   -2.22643802992935
C         1.82510762343139    2.90663324824255   -0.72407864524667
H         2.12231157824829    3.66829338175405    0.00587861579744
C         0.98327195776945    1.14032875352301    2.27705276915153
H         0.19362830691231    1.51607317230442    1.61263009940165
H         0.78068152134050    0.08870872825071    2.49555350745783
C         1.36632776076981    1.25464924637075    4.69780783039994
C         0.55799744915766    1.23482170422561    5.82750799024949
H        -0.42318621288957    1.68040102572182    5.76527587312633
C         0.99380014789310    0.65720808609157    7.00546843127289
H         0.35226775257483    0.65423141068706    7.87279728143221
C         2.24784549332471    0.07565749320118    7.06475418926612
H         2.59420189029871   -0.38362861810987    7.97739807423924
C         3.06900740008935    0.08962370350160    5.95202266635875
H         4.05940060594309   -0.34235824754284    5.99777134788184
C         2.64384179011797    0.68821022738118    4.77606185703658
C         0.94808379808052    3.29386782641620    3.48560318077463
H         0.45415741310945    3.70078297746123    4.37486697756263
H         0.41597093456770    3.65806834513248    2.59739088353068
C         2.40459815937312    5.72758483007176    3.25064080783587
C         2.28076961927867    6.23776459823073    1.96050558271631
H         2.41859437470009    5.57135084736902    1.11186144736454
C         2.04538054066011    7.58351675631722    1.76234430288013
H         1.96071556596368    7.97721741811845    0.76026685158262
C         1.93851086304063    8.43209218958682    2.85372058826570
H         1.76381612490371    9.48694238670747    2.70162466501294
C         2.07856293338739    7.93204164199610    4.13691266620029
H         2.01638488535012    8.59752634319951    4.98578410905769
C         2.31171670797522    6.58262878416093    4.34097348887698
H         2.44806635104952    6.20438741764295    5.34327619770539
C         3.40480202906259    3.63031615861607    5.02413009685581
C         2.70835228426019    3.79633452338502    6.21754342116914
H         1.68860938710165    4.15495943718924    6.21400588483985
C         3.31532866756621    3.48431760964123    7.42027627651792
H         2.77057709531877    3.61346989110572    8.34399434821129
C         4.61452885011824    3.00475574147597    7.44373481489690
H         5.08187786846468    2.76231729299353    8.38662551831616
C         5.31112163714726    2.83216909557414    6.25873152124007
H         6.32425941300364    2.45749938010015    6.27685167319104
C         4.70938436051369    3.14064920298166    5.05261112018447
H         5.24724352664026    3.00778716949216    4.11145734741976

