86
CSD_code = MEJZEG | q = 0 | S = 0 | Stoichiometry = C35H45BrFeNO2P | MND = 7
Fe        4.43601438496393    5.83418989826389    0.72897533642384
N         3.96284102690127    6.83757418253159    2.62393728053171
C         4.15263679687949    7.75160137512779    1.67009658346394
H         3.43103712083753    8.54978800538984    1.47839703521310
C         5.37471448297413    7.72291914880500    0.96132133837805
H         5.54999866190306    8.44753868056227    0.17590273088309
C         6.33790984737053    6.74880661534950    1.33193783974423
H         6.42534670733356    6.57151644647309    2.39919952463084
C         7.59427413647155    6.58379873825782    0.60426957534936
C         7.70743826904033    6.85090752641811   -0.76241042037139
H         6.84777402618890    7.20880675633279   -1.30789687679481
C         8.89878070258138    6.65088184786023   -1.43029507902384
H         8.96076861722136    6.86087028947239   -2.48830612402993
C        10.01193114492549    6.17787950780933   -0.75383791081794
H        10.94110201047762    6.01599887007439   -1.27956129314161
C         9.92336390061449    5.92069425259589    0.60377822523014
H        10.78881364154429    5.56344094501627    1.14391143891816
C         8.73195092951219    6.12369312305747    1.27203242951563
H         8.68309644888715    5.93876711606676    2.33638282336647
C         2.73156346918757    6.74020332154599    3.26416337051698
C         2.71461636956688    6.21697257369092    4.56100471255721
H         3.64896130940454    5.95391592292985    5.03055833861770
C         1.52921105443935    6.04039040923803    5.24325386290806
H         1.52684332298441    5.63549733224261    6.24415019501376
C         0.33685577369542    6.38694869867629    4.63041933043328
Br       -1.30823320687798    6.11218822278684    5.55513226278453
C         0.32061753944884    6.91599640245731    3.35139999627954
H        -0.61621415291325    7.17771577098268    2.88324758960382
C         1.51030909794091    7.09284421124444    2.67585332604101
H         1.48545489114146    7.47332525372077    1.66548997634068
P         4.88703325640584    3.77622642556070    1.60494319560724
C         6.31963291687755    3.67456105447387    2.81483170876090
H         7.09995070829472    4.24106370871254    2.29050354005142
C         5.98692461884694    4.42369722452240    4.10677627652610
H         5.50138358250922    5.37312482177134    3.87193384318111
H         5.29599923263235    3.82995054035264    4.71027836735397
C         7.25418745057360    4.65316448162575    4.92715501672809
H         7.95054964578463    5.28024963925663    4.36612502415816
H         7.00852167749003    5.18027404053892    5.85192654932730
C         7.92181369085427    3.31994352008313    5.25212726095062
H         8.85372022306569    3.49102954051573    5.79472320909497
H         7.26333211524235    2.73489851061890    5.89891505987633
C         8.20100407394610    2.53228418650401    3.97529569136804
H         8.64562969647021    1.56684476925580    4.22688858766589
H         8.91844066033237    3.07851273256680    3.35807193355138
C         6.91282299979513    2.31314145483246    3.17974497420548
H         7.13938733965396    1.72366127796339    2.29102508337759
H         6.21471173051883    1.74944012124933    3.80045240881470
C         3.50165581963584    2.93313032801052    2.55597653035245
H         3.63081561568940    3.30811454614388    3.57948664651427
C         3.51642630610948    1.40395704146893    2.60045724139028
H         4.49023610931784    1.02849511424665    2.91346701410773
H         3.30253255677444    0.99722954944231    1.61127201189388
C         2.44515082766753    0.90957314145733    3.57251009588430
H         2.46124409899796   -0.18187940607809    3.61094412077542
H         2.66261283627586    1.28222629590286    4.57648835060447
C         1.06481396207889    1.39441383950061    3.14143829294940
H         0.82021491459030    0.96909571813777    2.16541938075951
H         0.31059146129492    1.05357936776032    3.85306259898149
C         1.04368627816304    2.91673235646933    3.04918102854937
H         1.21671845208359    3.34462062203285    4.03969470243385
H         0.06492033927771    3.25751688332543    2.70667957197111
C         2.12556895356791    3.41248152159657    2.09317751109736
H         1.91563366598638    3.04839141713265    1.08572085010301
H         2.11180890288670    4.50378386111518    2.06389819811110
C         5.40030455524526    2.54002828739365    0.30545316602579
H         5.57345319563742    1.56632877667151    0.77723980142748
C         4.29633486176859    2.39202518862836   -0.74174284102131
H         3.39226688609872    1.98627211528616   -0.28494324716441
H         4.04639835156325    3.37862338762503   -1.13776561048746
C         4.73616762198481    1.48297940840644   -1.88624035496147
H         4.93121999650113    0.47858359237276   -1.50084046929977
H         3.93346971578294    1.40915934800215   -2.62241636896336
C         5.99944529576254    2.02859538413592   -2.54101169762706
H         5.79529541775493    3.01887816952260   -2.95189089374825
H         6.30739797326685    1.37826474597686   -3.36199055923951
C         7.11364265235258    2.13027887875317   -1.50648023955913
H         7.34519111043294    1.13210500300678   -1.12490066154869
H         8.01882991147420    2.53140216926573   -1.96629736244174
C         6.69214248750122    3.03290615749729   -0.35066166171131
H         6.53256568676689    4.04931951012319   -0.72174533247017
H         7.50030529832675    3.07711227593270    0.38110239282724
C         4.74452745451896    5.67809118855996   -0.97577817187979
O         4.80849917124201    5.68297624865528   -2.12651995634760
C         2.81901537771886    5.66520814645492    0.06004706334414
O         1.83777193397301    5.56816032467584   -0.53581629079193

