74
CSD_code = MEKBEJ | q = 0 | S = 0 | Stoichiometry = C35H34FeNO2P | MND = 7
Fe        6.91771037071342    0.93340160127275    2.04674190644101
P         8.92081983046267    1.39188521792974    2.91485957460214
N         6.23537512414354   -0.50483040049337    3.54353192346463
C         5.16554141528385   -0.04536530435326    2.92218269368508
H         4.42436324829797   -0.72367368171497    2.48352028072743
C         4.99498950952740    1.35696164105057    2.83277000604923
H         4.15037078628150    1.76476656645774    2.29242326775430
C         5.91955822781283    2.16329332032478    3.55100308571691
H         6.23837208812423    1.76129359808494    4.51037612796276
C         5.88927572327049    3.62205850384485    3.51938063095645
C         5.37300835069842    4.33911328222826    2.43597989767656
H         4.97138850752614    3.80558674154139    1.58692882324114
C         5.39790441025563    5.71962720023158    2.42473266182117
H         4.99586918704038    6.25543277592045    1.57673604161822
C         5.94420481286258    6.41950044731066    3.48905811879674
H         5.96800296791606    7.49919051806085    3.47466159790423
C         6.46294982810308    5.72384363314334    4.56907910605703
H         6.89269019016675    6.26138550852883    5.40231013597612
C         6.43387823704359    4.34352867893998    4.58568867366342
H         6.84393178682513    3.80714440464179    5.43046575506302
C         6.42128699647619   -1.93542460724029    3.58312684972280
H         5.81724571800493   -2.42904018044857    2.79822657291674
C         7.88773963612955   -2.29940632958513    3.36169754416346
H         8.20150314957758   -1.92714178763807    2.38329547203033
H         8.49820303254099   -1.80021182661140    4.11641361023609
C         8.09587637188517   -3.80595029850368    3.45059156292041
H         9.15245330588350   -4.03642737697964    3.29822910521386
H         7.52768596726812   -4.29889417927534    2.65825047493644
C         7.63354138682203   -4.32807009046037    4.80778810574299
H         8.24744295965944   -3.88192778998059    5.59377950013596
H         7.76262386030731   -5.41138990877505    4.85499602093236
C         6.16947086638061   -3.96875182474216    5.04336219502292
H         5.85019815118192   -4.32383966235064    6.02565151296240
H         5.55027647422763   -4.46412136696145    4.29149505621551
C         5.96505405020491   -2.46054035316254    4.95199494029069
H         6.54389299044219   -1.95999048356675    5.73128970659826
H         4.91257018540336   -2.20892333791383    5.10322139337503
C         9.79147296700488    2.81418269607537    2.15903443715705
C         9.04060424586742    3.96539718024115    1.93348144834178
H         7.99210081857629    3.97268110172918    2.19435067524408
C         9.62794367259318    5.08977325552495    1.38608032797751
H         9.03430429511337    5.97636423408413    1.21909167806134
C        10.97225788562410    5.07406843911929    1.04935525713352
H        11.43240389202930    5.94869823019025    0.61373030667406
C        11.72524656947244    3.93362884190241    1.27255185390027
H        12.77407506208656    3.91886900685624    1.01322480369224
C        11.14280624403554    2.80793176675707    1.82937167865027
H        11.74163495297955    1.92565000571919    2.00478053138225
C        10.20661955341049    0.10052951842363    2.75446469209643
C        10.93074923980520   -0.42359348893684    3.81759722408313
H        10.77801325328863   -0.04454094386547    4.81812912725350
C        11.85033473059218   -1.43549448905586    3.59606911595561
H        12.40810838329112   -1.84210473725151    4.42737111318474
C        12.05640647175463   -1.92601290922109    2.31855057129331
H        12.77228646565019   -2.71735782650180    2.15205361037592
C        11.34299787307021   -1.40009892118099    1.25156985318805
H        11.50382578936024   -1.77871658826494    0.25298259834318
C        10.42019292345193   -0.39659138622840    1.47007074336067
H         9.84982054635921    0.02008442058119    0.64870326275521
C         9.06679693701093    1.81508725441363    4.68729729585447
C         8.40260415583268    0.98180338250577    5.58685224406313
H         7.84187107102629    0.14139627583038    5.20072528334002
C         8.44418319388294    1.24349730521368    6.94312968267543
H         7.92773263853384    0.59420893762397    7.63581219969371
C         9.13989638737563    2.34657837126200    7.41422643576121
H         9.16791260290649    2.55664427961439    8.47345201069551
C         9.79137126470772    3.18309408448172    6.52372708287137
H        10.32795745084463    4.04688498409742    6.88871902798504
C         9.75752028675008    2.92281629888778    5.16394902095181
H        10.26412203940590    3.58479932537858    4.47706261012903
C         7.17056964885017   -0.21522472082715    0.74360732036746
O         7.31315073424511   -0.88326472591195   -0.18497532272557
C         6.95579606347958    2.02646894726539    0.69308403497510
O         7.00433998496340    2.64836974470179   -0.27442376934439

