87
CSD_code = MEKBUC | q = 1 | S = 0 | Stoichiometry = C38H42IrN4P2(1+) | MND = 4
Ir        4.62350527382345    3.40011127981158   12.60357241718406
P         4.54931767047497    5.07710212925144   14.15684613058228
P         3.20573658128233    1.97410861076916   13.68711057124606
N         6.94537380761170    5.26301005714861   12.18124164909642
N         5.86341612781930    5.13025886640445   10.33029915543452
N         3.68487976242455    1.28265119635360   10.67506223201636
N         5.83241920452835    1.31015835206576   10.64432964459994
C         3.57584026368209    6.54392105509354   13.69139172299836
C         3.64884998985604    7.75651461739244   14.37054199844774
H         4.29596649038839    7.85657459089805   15.23141639110971
C         2.88173375224942    8.82818830616458   13.95193834160828
H         2.93900502713757    9.76808857814079   14.48025523250763
C         2.03698218212407    8.69875007901131   12.86006283919253
H         1.44046510520723    9.53893579157912   12.53907973898574
C         1.95649810264804    7.49292822696372   12.18314073374381
H         1.29508798589700    7.39300378613079   11.33474710398372
C         2.72568294486358    6.42131067028673   12.59924649978864
H         2.68674043298470    5.46822504563151   12.08354769968889
C         4.05400965741059    4.80398873864107   15.89274588059441
C         4.79837015956305    3.87182437796835   16.61163548982933
H         5.63203569533178    3.37476176382065   16.13286456356862
C         4.48202429287231    3.58251388002955   17.92405478427257
H         5.06786701424487    2.86152690655987   18.47479551548939
C         3.41187017201144    4.22050514480337   18.53099858736011
H         3.16589574185867    4.00278661405150   19.55905889708785
C         2.65444596477652    5.13112496827247   17.81473615676889
H         1.81468635473815    5.62215123961174   18.28289263121987
C         2.96536037281488    5.41805924619019   16.49700327042587
H         2.35974244849731    6.11997153279098   15.94285764633971
C         6.23957323593229    5.84370623623895   14.44120473748154
H         6.21335742337694    6.90172974369117   14.17125723747309
H         6.51542155584053    5.75432699525043   15.49306314028593
C         7.27756152094375    5.12523186386461   13.57540480058365
H         8.27453130709997    5.54170795700818   13.74053072087371
H         7.29291112481936    4.06012820323610   13.83006021304158
C         7.57192956970227    6.09802345081006   11.29803826673508
H         8.43751465321601    6.67084468606634   11.55918707725659
C         6.89409399640407    6.01106554020535   10.13179886597350
H         7.06680928722602    6.49288371962161    9.19237169172546
C         5.87781155698913    4.65575677979772   11.59896351547737
C         4.87856633999689    4.82339295560376    9.32398363714928
H         4.27442502056339    3.99620160871592    9.70470278328534
H         5.38979246685158    4.50016335855998    8.41162975356185
C         3.99259745449480    6.02934630918927    9.02532811006438
H         3.21987231836898    5.75168699431462    8.31452836325857
H         4.57473150859763    6.84190074938007    8.59834221356005
H         3.52221476923659    6.38648775737348    9.93763213786266
C         1.93072623238040    2.57566501486083   14.84745298478675
C         1.81882196783446    2.17733398527818   16.17216191005730
H         2.51365816867610    1.46209833423813   16.58685808658673
C         0.81289697713226    2.69999257383512   16.96659271956957
H         0.72287389391041    2.37702090604626   17.99280397695101
C        -0.07385885827597    3.63053501852420   16.45328932487097
H        -0.85795839536783    4.03147243729801   17.07720645329517
C         0.05074204236285    4.05308290353613   15.13916941694102
H        -0.63074789941413    4.78872741677216   14.73828390395242
C         1.04957567658211    3.52923669982463   14.34318327415788
H         1.15444583769007    3.85583201609130   13.31651718539052
C         3.99179722043826    0.61429819574693   14.60697569604232
C         3.29526630174665   -0.48831252478792   15.09256394662444
H         2.22730885466556   -0.56403550831562   14.93949099824885
C         3.96966113959417   -1.48049284926028   15.78074054204930
H         3.42772644147022   -2.33392335018126   16.15989613233823
C         5.33697789180974   -1.38190949959791   15.98836991156798
H         5.85651687479328   -2.15934677809966   16.52731275248549
C         6.03615927617185   -0.28820700401048   15.50477167839889
H         7.10182490078114   -0.21373430478921   15.66564269504230
C         5.36261881725958    0.70405372589472   14.81627709214249
H         5.88574307092727    1.56807851022700   14.42141013728131
C         2.10039234129866    1.02016225004377   12.50641208067117
H         2.34498938851700   -0.04353084487669   12.55276300638070
H         1.05363057969449    1.15543145607858   12.78343336204458
C         2.32573580369590    1.53024886199590   11.08065074762644
H         1.65495802647061    1.02815009736093   10.37885492799407
H         2.13489191118540    2.60787118358112   11.04213732155182
C         4.07967021351567    0.29295881039687    9.81776300155826
H         3.38368519075719   -0.32988802546616    9.29504338502047
C         5.43090004749494    0.31264609693148    9.79537079193633
H         6.12479373010651   -0.28915172031110    9.24656629315906
C         4.76096784054810    1.92307012319325   11.20389842028491
C         7.21572453750338    1.58062982618778   10.94260550017789
H         7.25707798561363    2.54168817645537   11.45996643204925
H         7.77281519675197    1.65624933912428   10.00387746740357
C         7.81669423712566    0.48624406261327   11.82039460085071
H         8.84252410963731    0.73745817938692   12.07332025859031
H         7.81460175961090   -0.46923678761148   11.30206998533501
H         7.24164697852258    0.38099243501916   12.73670080777141

