92
CSD_code = MEKCIR | q = 1 | S = 0 | Stoichiometry = C39H45IIrN4P2(1+) | MND = 6
I         1.69677703921008    4.57070404824446    4.92488172669510
Ir        2.36110520193721    3.11452083984606    7.19467737987917
P         4.08199846783817    4.77976949990207    7.53282102790443
P         0.62644847210745    4.15830283367805    8.44610621124355
N         3.40284685155767    1.16988723460713    4.97800557607220
N         5.02372169107696    1.89386655766852    6.18869552273001
N         0.98341662796805    0.27798204188931    7.27520146411953
N        -0.44157327723675    1.82777567977587    6.84192647282529
C         3.68343018744996    1.99906425586609    6.01344369279432
C         2.15280221446103    0.95528413094756    4.28016772727614
H         1.90059993928377   -0.10852759253449    4.33732693658498
H         1.37313395793609    1.52945823281012    4.77540724505644
C         2.24458561052657    1.39198694100545    2.82189648764792
H         1.27981657995895    1.24753767296811    2.34526433006850
H         2.98668090738732    0.81697573654418    2.27585449784593
H         2.49818635082511    2.44622150203002    2.75891258897010
C         4.54054147772684    0.54662001894209    4.54363737387126
H         4.53650236831744   -0.16458256302943    3.74515117766963
C         5.56031118676231    1.00644678995316    5.29806744652120
H         6.60565361811128    0.77968676545487    5.27103180348704
C         5.84613197130406    2.72181223678979    7.03664002546299
H         6.88732411700296    2.43836460585184    6.86375276321526
H         5.60724183235011    2.54033362636638    8.08892761492810
C         5.61371055767451    4.19023120095028    6.68633558712957
H         5.48240751528571    4.28319639099545    5.60543218057405
H         6.45723198971177    4.82205631318414    6.97115819791863
C         4.67261146072164    5.00679208278801    9.25038408683603
C         5.97679582463838    4.81419083759655    9.69076686002456
H         6.75457189549832    4.48270398608394    9.02093410018262
C         6.30661085439225    5.04980603193655   11.01564951172216
H         7.32384348104108    4.89585412558118   11.34287506072905
C         5.34962049724428    5.48235635445118   11.91666457300943
H         5.61695657732670    5.66693257496494   12.94548129350969
C         4.04612405880431    5.67645324191232   11.48924858591494
H         3.28905794525051    6.01748852877537   12.18044163006154
C         3.71596012937048    5.43442917070935   10.16999823458318
H         2.69799331047331    5.58004060498780    9.83090794583033
C         4.11011758791694    6.52265420173164    6.96157128729269
C         3.96062480579601    7.58573072340375    7.84741282458709
H         3.81464328890827    7.40927935882034    8.90207724857134
C         4.00668695585161    8.89054503309530    7.38998240717145
H         3.89600811640505    9.70135760032389    8.09445277415496
C         4.19126566010250    9.15535308858400    6.04426098126078
H         4.22022758739270   10.17403594222428    5.68954702572048
C         4.33949427720133    8.10373011521638    5.15621303082166
H         4.48106446939532    8.29584314213790    4.10394261088288
C         4.30261135412160    6.79838695011333    5.60900139517524
H         4.40808862472889    6.00123973925468    4.89052941436741
C         0.88206504447648    1.61341972834997    7.06003731985928
C         2.15386820433424   -0.54017106044143    7.50463487761431
H         3.03668311218493    0.09020754802895    7.44914501615871
H         2.20663422622587   -1.28708418457798    6.70495450222528
C         2.10023113156044   -1.25086966923767    8.85356391326641
H         3.01519545942055   -1.81828543119377    8.99727262483736
H         1.26128964018575   -1.93918337764085    8.90653022724129
H         2.00813005501711   -0.53370239855291    9.66455840265348
C        -0.24503630890523   -0.31729824828467    7.18746759352985
H        -0.38362204004696   -1.37061032475022    7.30941295040197
C        -1.13879393099609    0.65497364792761    6.91595355588857
H        -2.19706877483004    0.60368046223804    6.76441326294992
C        -1.09526694673277    3.05705702440545    6.45120523752668
H        -2.15662225489923    2.83368489834115    6.32132813652059
H        -0.70301129013956    3.36026840994032    5.47667035847490
C        -0.92803750486957    4.21071407317960    7.44171147715279
H        -1.76823117357377    4.27626854202123    8.13934344901141
H        -0.89685558125781    5.14734191668868    6.87846106218373
C         0.11190433051867    3.22369387021319    9.92848434974737
C         0.90761927295185    3.30872207917742   11.07144747640335
H         1.77232419326750    3.95516371857623   11.07549996636311
C         0.60190023430948    2.57675268596765   12.20269850089657
H         1.22546345278793    2.66131222544834   13.08004392809431
C        -0.49793234006127    1.73396557896482   12.20907673335170
H        -0.73651707567553    1.15868228956621   13.09020294864693
C        -1.28926393106484    1.63548833297004   11.07829541267380
H        -2.14953408516355    0.98276231261411   11.07467671747044
C        -0.98818183870557    2.37272263426704    9.94580965906391
H        -1.63050023408863    2.27584402179175    9.08436556911388
C         0.52421583996220    5.89964126749113    8.99773349422187
C         0.03548645762599    6.27940548692860   10.24387301446201
H        -0.26470369576819    5.53373024541114   10.96552174306272
C        -0.06981728479645    7.62183548604379   10.56231100985590
H        -0.44853534879875    7.90940704023442   11.53162843966014
C         0.29675113117929    8.59175857387380    9.64383401680654
H         0.20721429399179    9.63658297564058    9.89831403169230
C         0.77025626819683    8.21802767481923    8.39702043698464
H         1.04923618428623    8.96589204739221    7.67078621606505
C         0.88815563022242    6.87904709617017    8.07655715532290
H         1.26188210822767    6.59677064304584    7.10300272756407
C         3.04732768532896    2.15918625238279    8.96416182119399
H         2.23641383221081    1.63061139144590    9.46117154131142
H         3.41072826316606    2.89984980973383    9.67440732473972
H         3.85594336936961    1.44205426819078    8.82404585659747

