70
CSD_code = MEKCIO | q = 0 | S = 0 | Stoichiometry = C24H29F6FeNO7P2 | MND = 7
Fe        6.37889837409835    7.35982194524487    2.36584852174571
N         4.90500576758244    6.01738389441033    2.64244766189092
C         5.11924183466565    6.07799862700709    1.30888808094201
H         4.30508006860119    6.26823316126286    0.61177276723748
C         6.43320531175802    5.86422971292324    0.88187890137221
H         6.70129375531321    5.98047533116423   -0.15899142198001
C         7.37790719939882    5.54146233126852    1.89562083412769
H         7.03386347583340    4.84074477035002    2.65253901461530
C         8.80911459714939    5.45943676129016    1.63899180658091
C         9.61027752768240    4.65933722681721    2.45602953870757
H         9.14775851757039    4.09361989216995    3.25316068842151
C        10.97439880802169    4.58091837516443    2.26018107263526
H        11.57754980449488    3.95714037845300    2.90475543174243
C        11.57222776943931    5.29973329139967    1.23797471619802
H        12.63974199379104    5.24232469958173    1.08495594636279
C        10.79111113884816    6.09398377228602    0.41436806447506
H        11.25168810065455    6.65789089663310   -0.38392438268238
C         9.42701720789766    6.17467931716706    0.61186218497003
H         8.83384226246636    6.80990831868065   -0.02841800675292
C         3.67257775124331    6.01019252066120    3.18704976268824
C         3.47739450216983    6.55186004912173    4.47037665485702
H         4.31331640844592    7.01933896937875    4.96722500788256
C         2.23795086973118    6.50068432256348    5.07249114995722
C         1.13793119939026    5.92804833768626    4.44000267509155
H         0.17169814028104    5.90395722141079    4.91562560792044
C         1.33587168260755    5.37898827283868    3.18024153818020
C         2.56944764182201    5.40272055258952    2.55937014034094
H         2.68769559857588    4.94578406316262    1.58882211600706
C         2.05461962824083    7.13842433575642    6.41836979514537
F         1.72048299682276    8.44655859143017    6.30956690587297
F         1.08402350034377    6.57189751799219    7.14729367319135
F         3.16421320278489    7.10815365930705    7.17221661501951
C         0.19510532202640    4.75139695550444    2.43310013293189
F        -0.95019475177954    4.71680834360968    3.12412966544317
F        -0.07685455042691    5.40985275345252    1.28671088656667
F         0.45790561794559    3.48229576901994    2.06862828100847
C         7.64117751562174    8.41378299431434    1.82488744750680
O         8.47810983116148    9.14449136959658    1.52508595280232
P         4.96809189667739    9.02316935341865    2.24597177437266
O         4.77764523177131   10.22067302082843    3.31032280380037
C         4.27471756904527    9.98268404978100    4.61742944177361
H         3.32369311805338    9.44999591338439    4.58268251509010
H         4.98820427631724    9.41807358011483    5.21888336213221
H         4.12033834698484   10.96447301978326    5.06436739578172
O         5.20303987351350   10.09541369280984    1.06222607530766
C         5.63375885858129    9.66726142433092   -0.21457551592742
H         6.15313294777118    8.70594700528287   -0.14697617440370
H         4.77818430867043    9.56893862727295   -0.88612539571355
H         6.31623033524603   10.42393243653189   -0.60150610522241
O         3.43908112839688    8.49816894666417    1.99615554572014
C         2.36538387132098    9.40698513446906    1.78487925057464
H         1.90560677876756    9.17866804921854    0.82226713027727
H         1.62784700057985    9.27008091721433    2.57755475593342
H         2.72111556013435   10.43908801442043    1.78441390393961
P         7.24137540255515    7.46079439240621    4.34535572358685
O         6.73941294099139    6.65890561062681    5.65089083630847
C         6.47197653608294    5.26982063282011    5.56009474116683
H         5.96185660797672    4.99323314513687    6.48257729481040
H         5.83070294332291    5.04887576216793    4.70591525934742
H         7.40196772805186    4.70339801684736    5.47213129212561
O         7.30137679958548    8.84165875000971    5.18861910380653
C         7.85071509923822   10.00618234809107    4.59579600565986
H         8.84008378819795    9.80750966474302    4.17916930243594
H         7.93092849291457   10.74548053634775    5.39258968840748
H         7.20113358618591   10.38767242935896    3.80516039384363
O         8.80875156040760    7.05375955077870    4.20263395139423
C         9.68125195341399    7.02713721757621    5.32648554817015
H         9.14079139853302    7.24515445888641    6.25005419312213
H        10.46818625658399    7.76861690934002    5.18090341751352
H        10.13152218184924    6.03528808665230    5.38621705584083

