83
CSD_code = MEKFIS | q = 0 | S = 0 | Stoichiometry = C40H32CdN10 | MND = 6
Cd        8.18138362671064    4.31932078575914    2.47431078230315
N         8.49619379772301    4.72417942683110    4.75214639265519
C         7.62271552222085    5.56953820121606    5.29202338066229
H         6.60181548171623    5.47130800843004    4.93915443306697
N        10.66120937658411    3.81086914251805    4.84288666104118
C         7.95109548893012    6.51497105390554    6.23834659872843
H         7.19679141991818    7.17609129980023    6.63581785800297
N        10.08857062894860    3.39730031858267    2.55877915004445
C         9.27939119789853    6.61137105844933    6.66748698030411
N        10.12297027192802    2.31263881358936    0.41195278398208
C        10.18274080227795    5.71407469494262    6.14510022035949
H        11.21852258133289    5.71386531265659    6.44715504049079
N         8.46853640551262    4.02585587030809    0.21240785262989
C         9.76913753837047    4.76583140265245    5.18907943467795
C         9.67678751725545    7.63219213849698    7.68628529658375
H        10.75836036872441    7.71932773482929    7.74959642038462
H         9.29728797964779    7.34269624465778    8.66620516352548
H         9.25087265468790    8.60235021048964    7.43865201537128
C        10.71567351569009    3.14638525921689    3.73830582637210
C        11.58873485129286    1.96873394809654    3.59108507819954
C        12.44374382325682    1.32052062179789    4.45893099080143
H        12.58450338449967    1.68047734653491    5.46603414414488
C        13.11061038178681    0.19800507331037    3.98486227036930
H        13.78939169687062   -0.33282836797467    4.63679568832856
C        12.92165798085116   -0.25594991439728    2.68615039548852
H        13.45592958622461   -1.13320435113100    2.35059711783709
C        12.06084607668052    0.39701003145943    1.81315694186461
H        11.90719367433307    0.05214488583394    0.80299223088611
C        11.39797877852894    1.51198106766712    2.28381509442186
C        10.44515971096378    2.44728108296110    1.65722467252952
C         7.73387619352287    4.75484503891378   -0.62320130124818
H         7.08479547854190    5.49326318727252   -0.16732916467843
C         7.77052631585362    4.63122091151608   -1.99518806522205
H         7.14859774266436    5.25900397835880   -2.61444970192657
C         8.62251912967014    3.68221438044435   -2.56921498041598
C         9.38832923534054    2.92617730088856   -1.71083675799386
H        10.07489950875207    2.17815340906429   -2.07478197662165
C         9.30981013071655    3.11678017851437   -0.31653426412493
C         8.68956448547450    3.51358384984306   -4.05368430820252
H         9.39828234814416    2.73609384859681   -4.32558591398564
H         8.99435367039973    4.44808056929303   -4.52306611279678
H         7.70849257803211    3.25009604948784   -4.44636321413681
N         7.00215232949901    2.39724232970058    2.91644972091319
C         7.62734369917309    1.39169580738019    3.52248981868399
H         8.64269101862332    1.58777766405417    3.84678238899443
C         7.05800503490892    0.16046792858787    3.76532744762181
H         7.62277686107743   -0.61038130369117    4.26657790790324
N         4.96350943283901    3.14342485390070    1.91539580417429
N         6.23705227675025    5.14572647035270    2.31248346151247
C         5.74241693434147   -0.07283603333019    3.35209430351162
N         6.76383101923073    7.47788311284094    2.29549848289957
C         5.08743844410110    0.96485617637845    2.72821195679104
H         4.06893269707835    0.86735434457008    2.38690039131435
C         5.72730615087621    2.20447364560486    2.52686400415679
N         8.91684320516990    6.53363510978988    2.34359310398452
C         5.08944310853070   -1.39679324661718    3.59173224007263
H         4.06928493487702   -1.40123755621880    3.21762262783891
H         5.07509846558140   -1.61961251719064    4.65783988794252
H         5.65066084674789   -2.18738558845732    3.09552138685129
C         5.20161692089505    4.41200787065780    1.83095298308157
C         4.22852770793063    5.30916444957901    1.17977549042633
C         3.02419096538700    5.08154691994504    0.54580633939297
H         2.63640833877633    4.08025016744091    0.44586256761384
C         2.34236136178387    6.18326550205554    0.04493405695134
H         1.39747684634486    6.04057539788051   -0.45948587132255
C         2.85199898085684    7.46801008561117    0.17965824365379
H         2.29459139505088    8.30256244184709   -0.22079836121852
C         4.06375969874168    7.69775639562084    0.81859978505314
H         4.46776115196926    8.69192773669128    0.92841891252860
C         4.74079295143066    6.60269649516426    1.31530472553523
C         6.03149623820964    6.45492652996279    2.00982828033976
C        10.20089310631081    6.70783516679185    2.64377787249814
H        10.87295274320144    5.94164831366318    2.27265913783615
C        10.68345491976509    7.77395245612127    3.37020520713251
H        11.73715262897171    7.85601860682800    3.58707409201072
C         9.78463080662957    8.74199026183165    3.83176579427651
C         8.46014243193821    8.59419115318782    3.48856236840947
H         7.71461983087031    9.31445998144658    3.78773312531288
C         8.04274475823144    7.48050382947007    2.73388794614555
C        10.26900520131874    9.90608201591001    4.63680147532598
H        10.93252157092897    9.56799969584720    5.43022096192139
H         9.43630992419586   10.45181511044718    5.07281564407127
H        10.83255012239533   10.58797111467922    4.00015313311712

