55
CSD_code = MEKGER | q = 0 | S = 0 | Stoichiometry = C24H23NO6Pt | MND = 5
C         4.31312871686617   11.10073685502178    8.17159681241232
C         4.64225344556983   12.42067406321989    8.49336390052500
H         4.84002701714107   13.13782100141694    7.69594708714562
C         4.17536811122535   13.04722693560412    9.79196656792701
H         4.51113088478789   14.08597007888247    9.84675302019869
H         3.08120138664421   13.05336469367999    9.82025970615352
C         4.73266891619673   12.27829974474659   10.96409078411422
C         4.28847431110534   12.48790835650977   12.26545879271448
H         3.50396901399565   13.20840417878296   12.43743332269209
C         4.84157389567377   11.78506796500486   13.32313783995057
C         5.87244782695484   10.85415887623398   13.06747187648709
C         6.30258887921591   10.64918996049558   11.76688030942827
H         7.09693427135843    9.94956108358341   11.56059917328501
C         5.74301451790863   11.36158411444293   10.71223159966791
C         3.49759149197273   12.86642040030862   14.95620222025353
H         2.53232151917282   12.64094227768893   14.48900622416672
H         3.81058539692967   13.87661861991054   14.67119161495227
H         3.39271497973644   12.81494237646795   16.03870279238759
C         7.44756714021088    9.33466580687862   13.98194264180771
H         8.28418271528885    9.83149751667691   13.46673898257377
H         7.16044318266217    8.44455413233852   13.40617850950054
C         7.95838382245984    8.89445092585638   15.34857442429256
C         9.05498170669117    7.13611905879632   16.45882397751048
H         8.28081288717535    7.09570501167981   17.23286696998285
H         9.84288174779066    7.81583116558555   16.80138758868709
C         9.60662223552876    5.75714837357358   16.15148482222569
H        10.35702987578007    5.82149910548464   15.36852256999465
H         8.80877655848106    5.10146874100391   15.81403162478943
H        10.05875318894765    5.33734075625282   17.04526196823208
C         8.25643249485379    9.78617580256728    7.13021321738614
C         8.89238224417293    8.96251982191660    6.18528743659324
H         9.69343022582610    8.33028480449984    6.53498474127099
C         8.46253258287754    8.98122711117569    4.88982101900557
H         8.89484415911291    8.33439901877239    4.13999760654768
C         7.44718324372405    9.88885131717593    4.52145227458171
C         6.98930791313039   10.01667483364306    3.19483125685617
H         7.41458592211003    9.37171765848510    2.43981592536315
C         6.04108464736245   10.94617312347195    2.87056191235163
H         5.69515536821172   11.04136675786330    1.85254652274661
C         5.52608303856985   11.79896548201671    3.85824905194792
H         4.80164356757749   12.55105319438694    3.58376724369886
C         5.93898233459508   11.69013520615541    5.15751322437062
H         5.56992613506502   12.36420973414960    5.91282219314511
C         6.88788193994812   10.71881250461506    5.53264341005290
C         8.78053690958180    9.78246164392142    8.57029174971822
N         7.26865512314338   10.60899079363100    6.83105057210392
O         4.47065612845985   11.90953610742901   14.62580096748844
O         6.36904663880965   10.21171343948541   14.16499614201046
O         7.93472746293141    9.54509121734658   16.35324371025173
O         8.47829885024620    7.66780089117540   15.26075951496009
O         8.10727034541838   10.46039178608110    9.41619869947498
O         9.80061849996854    9.16570200031537    8.81254019583481
Pt        6.31764834332209   11.12177250117355    8.80674554988277
H         3.69669237450637   10.53250891491706    8.86547628184681
H         4.23456386300389   10.79429215749607    7.13178185645220

