94
CSD_code = MEKJOD | q = 0 | S = 0 | Stoichiometry = C49H38O4P2Ru | MND = 6
P        12.72561687684123    5.94055762518630    4.42869985046123
P        15.26470545348691    2.58117209842399    5.70105298329269
C        10.91310472210191    6.07176769240279    4.30742155664310
C        10.19924279902250    6.38969762796515    3.15937981984981
H        10.71372126983631    6.57604257773082    2.22764829385614
C         8.81667483339888    6.44944749927559    3.20392062052839
H         8.26368801990589    6.69283949238327    2.30798684672749
C         8.14250693943429    6.19573931381202    4.38631249334104
H         7.06386204821355    6.24502967789014    4.41264223557514
C         8.85061643054973    5.86270503638022    5.53052085482673
H         8.32664547795014    5.64714570982074    6.44963998460638
C        10.22989508446664    5.79113636054858    5.49063227524157
H        10.79594370410552    5.49732260966076    6.36830442507489
C        13.23601784181526    7.61435292100963    4.92994401032683
C        14.44062758998090    8.15004501857112    4.48225639843746
H        15.00930961949973    7.63495931492242    3.72088302522897
C        14.91661267635910    9.33302106758383    5.01569421393796
H        15.85925475945293    9.73405127689270    4.67191304960174
C        14.19632686575657    9.99136320343940    5.99804377309517
H        14.57363623027686   10.91177800090332    6.41870945438091
C        12.99554214808386    9.46420469142559    6.44560716804482
H        12.43377209314616    9.97460935264266    7.21416450946184
C        12.51972756543727    8.27602583228580    5.92368320558436
H        11.59328085320638    7.85430227813511    6.28787580983377
C        13.94946818738731    4.68536743090648    2.23642177861344
C        13.31484293893435    5.84360254654191    2.69874369552457
C        13.16423738349464    6.92000131262571    1.82929545034078
H        12.70687476940645    7.82931151460549    2.19441698151338
C        13.62776506318126    6.84071688741520    0.53125453345085
H        13.51947970867429    7.68372882113902   -0.13438798244354
C        14.22492989465421    5.67652740635332    0.07591227213570
H        14.56477025755854    5.63119364658222   -0.94568782698978
C        14.38511011077346    4.58303579553144    0.91247510934518
C        14.94051877725702    3.24258700062557    0.47024014575343
C        15.78122218053315    2.70870203399270    1.61452690611333
C        16.96038698334817    1.99895657438021    1.45072632475849
H        17.37167645767446    1.85172736057673    0.46565644858102
C        17.62809598971652    1.46626292092049    2.54125502673314
H        18.54831979541334    0.92154808384541    2.39301780710330
C        17.11546815882962    1.62509914019689    3.81325072687752
H        17.63980938279043    1.22299791491846    4.66919022027197
C        15.93824902846659    2.33973751617448    4.01592075485127
C        15.28764829905402    2.89518801842089    2.90866091774304
C        15.71316276667940    3.32584477838869   -0.84501110911248
H        16.06286216347152    2.33941178736571   -1.13788533579021
H        16.56692057528112    3.99414610032019   -0.75596364781524
H        15.06341289125212    3.68297942667126   -1.63963715655428
C        13.74652582407853    2.28250986047446    0.28233099585451
H        14.10514457384158    1.29242998375558    0.00820966061214
H        13.09317345381974    2.65098884467573   -0.50592382655270
H        13.16433574791439    2.19505442738600    1.19730018330928
C        14.79833894607227    0.91202930885587    6.26603439047755
C        15.21246432300574   -0.28457101480915    5.69572804672650
H        15.86344679275219   -0.28507593549020    4.83341379859736
C        14.77200189836693   -1.48686663767233    6.22264143382335
H        15.09254889171908   -2.41590491815266    5.77330952544794
C        13.92249545608224   -1.50347409961284    7.31574373856775
H        13.58364562905420   -2.44569211781236    7.72070342602585
C        13.49419500026208   -0.31133456636754    7.87850859918290
H        12.81730029918386   -0.32021997304093    8.71966735888214
C        13.92185583090133    0.89180949640094    7.35080242365869
H        13.56604838476687    1.83300551852977    7.75705652566700
C        16.76063630396964    2.94355056130962    6.67521482282408
C        16.75849068939258    2.66288834963421    8.03899270753432
H        15.92722724952717    2.12516660507654    8.47363136246956
C        17.81120294435996    3.07568109468987    8.83380028484980
H        17.80391011990246    2.85311461756853    9.89077175355613
C        18.86534731809408    3.78512391926051    8.28095751406950
H        19.68094929087199    4.11804398257092    8.90576635674754
C        18.86792191715559    4.07496552971259    6.92726072372332
H        19.68082858025119    4.63983392446307    6.49421558705245
C        17.82053192020991    3.65992024008868    6.12593094655098
H        17.82066170588550    3.90397685721834    5.07277184685035
C        15.76377020534141    5.93814957705407    6.21215130988840
C        14.97739505082896    5.84380540983447    7.33868360877850
H        15.19607303289309    6.38057977194802    8.24925576508533
C        13.81443103314252    5.01460129011310    7.30445063834446
C        17.00171941079669    6.74764276220052    6.15950711173947
C        17.63739053818450    6.91855549607114    4.92961871600435
H        17.20436228536320    6.45683578087735    4.05322188464727
C        18.79975939024187    7.65603811059177    4.82476200957098
H        19.27629836620385    7.77962319441194    3.86208837794532
C        19.35524631143189    8.23507107230819    5.95336052436830
H        20.26496181355876    8.81299489680794    5.87657700977430
C        18.74024901837028    8.06354305985961    7.18292446363895
H        19.17512343514423    8.50637971101245    8.06761315506089
C        17.57573199454765    7.32713254034156    7.28843933067440
H        17.11986887222441    7.19394484278280    8.25635135527747
C        12.19031737694689    3.16365556862053    5.72678305947040
O        14.15459374586338    3.64509468977932    3.10930971367351
O        15.44590118647004    5.30913831309713    5.13102683657084
O        13.01405839824811    4.82109326568270    8.19070770730220
O        11.25070870076673    2.50541708062174    5.85434927446846
Ru       13.69544707587236    4.18125940942348    5.44764906226224

