26
CSD_code = MEKSEB | q = 0 | S = 0 | Stoichiometry = C10H10ClMoNO3 | MND = 9
Mo        6.70378959327046    2.49954301734069    1.54445225642292
Cl        8.32410462372273    1.73312534318217    3.34386360083506
O         4.93758854355897    1.99230419819662    4.02854611090763
O         4.06237687627755    1.83349375705866    0.08737000398423
O         7.29969138221277   -0.45846107200300    0.87835771961116
N         9.64641459575498    4.37002166378953    2.28964382784697
C         5.58121776911841    2.14742104017702    3.09884435397605
C         5.04450614150992    2.10448660011276    0.61121811656432
C         7.04874747060831    0.62388879793178    1.13934251548993
C         7.22923079959262    4.75227326249528    1.87734716909096
H         7.01574669540577    5.41716249770716    2.70285905431576
C         6.40691160726501    4.60527570323802    0.74162079590789
H         5.48185751400980    5.13908875863253    0.55977797484410
C         7.13301190449766    3.85003720292754   -0.23301519551594
H         6.84415417813063    3.72118346811037   -1.26921267497716
C         8.39577627333948    3.53898164166055    0.31129581676362
H         9.21796645808920    3.12383230319106   -0.25511293080511
C         8.51942450529284    4.20358661855461    1.57593538441837
C         9.54788263075057    4.88031792548589    3.64131265420883
H         9.07379951479742    5.86308005267431    3.63196251671148
H        10.54650794453387    4.98566281501837    4.05699666124136
H         8.97033863143048    4.20395545971452    4.27856097047063
C        10.81270480419326    3.58039781036480    1.95414423590367
H        10.63276061802831    2.51495451241305    2.12598647514255
H        11.64902790218737    3.90005291508116    2.57056344773913
H        11.07776102242145    3.73893370694459    0.90803913890229

