80
CSD_code = MEKTAY | q = 0 | S = 0 | Stoichiometry = C33H38Cl2O4P2Pd | MND = 4
Pd        6.64538986674121   10.02761506214225    8.28360503719578
Cl        8.71883807198104   10.00742423210332    7.27666824489352
Cl        7.53270818054921   10.15073365823212   10.40765904710613
P         5.74416005790406   10.24606874414107    6.23672117762258
P         4.63124953605119    9.71066817045291    9.22671009284876
O         6.86244905913197   12.60013134191005    7.24125070163585
O         4.18937908593180    9.52269008230201    3.61100004234143
O         1.68237930131841   10.27465428160593   10.12520439657623
O         6.26254219285510    7.45014409044543    9.28307094799950
C         6.58864832540646   11.47131592937049    5.20637695447309
C         6.83511453000457   11.33983319589696    3.84846961207137
H         6.45764361961026   10.48096930242778    3.31775158306649
C         7.58027074030150   12.29498305573997    3.17919560724056
H         7.76772204440337   12.18924858644161    2.12127855945305
C         8.10088385047498   13.37337232353016    3.87230825644971
H         8.68876968957165   14.11605927815468    3.35348619049117
C         7.88979269642349   13.50699431172174    5.23411302228796
H         8.31718071451658   14.34549234968308    5.76202862087765
C         7.13181811660510   12.55973175959391    5.91040271848071
C         7.81247897694816   13.25147806805797    8.07808355210305
H         8.82609355624857   13.10435749219539    7.69862894262377
H         7.74341156147860   12.77679107860613    9.06201882173409
H         7.58804984588363   14.32011871797121    8.15970225373445
C         5.66854179466911    8.71339298488401    5.24967734205902
C         6.44149634809756    7.68252157079762    5.77494460732059
H         7.00670803108026    7.88149379389710    6.68228242048866
C         6.50733894132722    6.44546383475158    5.16149059098053
H         7.11898104324595    5.66115657640941    5.57921478781777
C         5.78109480477686    6.22802958184003    4.00526880029613
H         5.81606723342378    5.26866698884131    3.51065370296413
C         4.99926922010503    7.23632958569061    3.46606398880316
H         4.44113609888657    7.03960272759517    2.56395194529889
C         4.93498821936911    8.48293381867986    4.07771126690995
C         3.52251255893824    9.38383568341212    2.37939522645779
H         4.21810565147413    9.14090207146856    1.57033451444640
H         3.06575552830163   10.35200878676129    2.17728776106108
H         2.73968681231407    8.61971319545237    2.42852638068201
C         3.82182967859034   11.21466218256231    9.86790225196701
C         4.68167267547530   12.30425854775611    9.96418797400989
H         5.71912937938067   12.16148803736060    9.67198343161265
C         4.24305320568915   13.52987197600157   10.42953847980788
H         4.92644380448469   14.36114684475591   10.50510941322051
C         2.91855369337586   13.67510266029425   10.79855262325738
H         2.55395872567746   14.62432324370275   11.16233617729594
C         2.04177927399035   12.60661037201504   10.70713187006661
H         1.01298936168515   12.74739809931364   11.00013621067105
C         2.48098103908653   11.37142293591663   10.24491116798894
C         0.35729826100421   10.34257823243099   10.59470232218170
H         0.31902858595086   10.61861288164662   11.65286025763031
H        -0.05364264110831    9.34097942032054   10.47316606376457
H        -0.24124986193025   11.05030749556760   10.01164288165529
C         4.65272763165274    8.52972757768089   10.59736419522708
C         3.93742006715600    8.66135159917592   11.77745740766549
H         3.25580928695865    9.48750979385807   11.89978793644793
C         4.11274402342797    7.74970345074786   12.80397446927933
H         3.55298362021669    7.85543157365244   13.72102410411969
C         5.02157087566250    6.71636547512919   12.66044294179401
H         5.16549086566095    6.00842227338936   13.46323207409090
C         5.76596907768146    6.58499503047382   11.50032925666878
H         6.48245132160390    5.78289854949846   11.41256816535170
C         5.58692769834186    7.48870954076165   10.46104154593633
C         7.56082593675902    6.86653587547092    9.29677769911320
H         8.06731750477300    7.07408990845235   10.24205493680747
H         8.12907962260170    7.34347988500673    8.49217335376966
H         7.50172728620166    5.78652319882695    9.12589731338592
C         3.49215839299238   11.86671111898256    5.39612986900290
H         3.25996106652147   11.28983028854445    4.50912993009316
H         4.21496736552767   12.63487993639480    5.12921938589534
H         2.58212155779396   12.35592721079688    5.74256358917391
C         4.04333671872407   10.97793122220166    6.50513866895592
H         4.22947360630554   11.63053782236692    7.37446324172783
C         3.03998913614219    9.89691223534474    6.92000302054626
H         2.70365891343794    9.36388802004592    6.02513191579122
H         2.16479934843708   10.38546886957542    7.35964258140847
C         3.58977491479357    8.87285536315027    7.91791605818231
H         4.34777190972895    8.25971461308295    7.40248989697833
C         2.50757266463927    7.91754986948155    8.40743837031606
H         1.71620936961877    8.44987971586716    8.92101645082418
H         2.92958467963961    7.18312187966248    9.09032488133818
H         2.07839444932151    7.38935885954630    7.55636789612545

