75
CSD_code = MEKTOM | q = 1 | S = 0 | Stoichiometry = C35H30N3O2P2RuS2(1+) | MND = 6
Ru       10.23681614880102    0.15055036391750   11.10407301900099
P        11.47551428956981   -1.74063389654953   10.48851212909820
P        14.07171490336847   -0.76874301168985   11.41291343926883
S         8.49342457859132    0.13797778053347    9.38352947571097
S        11.08161325822316    0.03071143341355   13.42007089645707
O        11.66809755104527    2.31667962421003   10.04568594407871
O        13.33240559529592    0.47129011580545   11.12153521461104
N        11.15900887077585    1.37565468309782   10.43603506476463
N         8.69474421355403    1.45699614020011   11.56619204481173
N         9.13797004534200   -1.15205226491882   12.24603787289655
C        12.87328448911468   -2.19170890842169   11.57637258533368
H        12.53824214213658   -2.24101095036143   12.61765067367818
H        13.30097208917658   -3.14906474578112   11.27299496396284
C         8.36258146934513    2.26640755783637   12.56747108432682
H         9.10258008124442    2.40454724571819   13.34655908874432
C         7.13733792915608    2.90181313413344   12.59602993604216
H         6.89304139704748    3.56227411731923   13.41091849341258
C         6.23447806088857    2.67881009940119   11.55617789915498
H         5.27280240342781    3.16781663653985   11.56059909385253
C         6.57623446316492    1.83215796676686   10.52211534876400
H         5.91282552180929    1.62825097515577    9.69776244463547
C         7.83375034818639    1.23154945827689   10.55675040743360
C         8.05492872180255   -1.92067321902147   12.10766888350655
H         7.62441898551688   -1.97611349453193   11.11415739812457
C         7.51883357798842   -2.61649475551503   13.16838324514531
H         6.64546467434990   -3.22932847313805   13.02300344667386
C         8.12487460406089   -2.51301104577538   14.42289588417134
H         7.72128723157950   -3.05276536373251   15.26532774490969
C         9.23540623615617   -1.71434928527972   14.57661137590354
H         9.73490242297780   -1.59263825265919   15.52370686652087
C         9.72253336481426   -1.03325240490483   13.45712912424750
C        10.42386878397152   -3.21606619154528   10.44646209352858
C         9.57980683300705   -3.36731703879290    9.34741728694636
H         9.62014453499736   -2.64225285548513    8.54438091389459
C         8.70409183577207   -4.43495221762089    9.29147552220711
H         8.05647201906753   -4.55450405139740    8.43655724796714
C         8.65760671808736   -5.34854798634017   10.33370522275660
H         7.97407124242588   -6.18231334852935   10.28959655293061
C         9.48697909424308   -5.19377787349301   11.43268095972286
H         9.44891028933622   -5.90488696427006   12.24402009260562
C        10.36765529291892   -4.12822530166804   11.49624311400110
H        11.00559496423277   -4.00906448095106   12.36139590965283
C        12.22308161531254   -1.70785673093012    8.84344829501458
C        12.98426158239302   -2.79452723655201    8.41581528861619
H        13.09482968894444   -3.66455228663165    9.04848874056488
C        13.58326299811112   -2.76629693099702    7.17168426412313
H        14.17680313408665   -3.60573636536361    6.84357517707962
C        13.42126706537870   -1.66395780261244    6.34656694307885
H        13.89633796584387   -1.64406851204303    5.37804213625792
C        12.63722596183784   -0.59828049463695    6.75494078238144
H        12.49333665824499    0.25005079985693    6.10371888748707
C        12.03298844565306   -0.62055505680434    7.99967359694438
H        11.39811606892790    0.20025288245867    8.31421170439898
C        14.97170747003007   -0.72340540550880   12.98161332617019
C        15.43255428127766   -1.86340039947305   13.62890711297603
H        15.24042556631856   -2.84305637643990   13.21528537662352
C        16.13300787441898   -1.73704021657670   14.81419654267366
H        16.49247028675212   -2.61904829145515   15.32277986586564
C        16.37437456589646   -0.48123619024527   15.35036395090607
H        16.92350889500064   -0.39032559195846   16.27513600868765
C        15.91204480299263    0.65444161147969   14.70540825199340
H        16.09858603289508    1.63059708829397   15.12640084641620
C        15.21193119409840    0.53433530881515   13.51865888080990
H        14.83416001613635    1.40193683016933   12.99733854260134
C        15.20944666982524   -1.22563030733090   10.07977013971975
C        15.92185536231054   -2.41794030180828   10.06618915833817
H        15.81902781438991   -3.12453860652316   10.87682377552680
C        16.77152251242789   -2.69271024803518    9.01114291100327
H        17.32726420221798   -3.61821601018129    8.99532018075443
C        16.91568120503000   -1.78013173698293    7.97722955892899
H        17.58150592387599   -2.00054306786885    7.15681349130716
C        16.21751763896420   -0.58407250096606    7.99984673736243
H        16.33974391360982    0.13080960975911    7.20056703574516
C        15.36693093414570   -0.30441065349572    9.05341723472663
H        14.81333037606064    0.62217424071853    9.09661924955955

