79
CSD_code = MEKVED | q = -1 | S = 0 | Stoichiometry = C44H28N4O2Re(1-) | MND = 6
Re       -9.94195984955631  -10.93949890913289  -24.36467543328653
O        -9.11121775234587  -10.13873716141316  -25.61409685882065
N        -8.86666787970800   -9.79209173717974  -22.97425439412608
N       -11.43963308777277   -9.47108048151162  -24.41870559133115
C        -7.65203870313314  -10.10891572102397  -22.47167435474094
C        -6.92324615541537  -11.28306271702975  -22.73845125410188
C       -12.58368674973797   -9.54449096322985  -25.13582477263085
C       -13.33997871464479   -8.33789091038213  -24.90746492751675
H       -14.28713524265167   -8.10043455457953  -25.35533091589215
C       -12.62484323109932   -7.57698062643578  -24.04178825226180
H       -12.89584213823017   -6.61899680235473  -23.63816878211388
C       -11.41390144331507   -8.30064446312268  -23.74197583247065
C       -10.40216278303997   -7.87236341229084  -22.86355076415921
C        -9.22522231715893   -8.56716316427971  -22.52773855810286
C        -8.16540929336741   -8.06017081763985  -21.69245972554248
H        -8.15214294509531   -7.09629751356617  -21.21803104211480
C        -7.19647833342808   -9.00955893039238  -21.65808672555914
H        -6.25071462317304   -8.95890590634276  -21.15088704444066
C        -5.62147501019359  -11.42124359153176  -22.05065497348306
C        -5.55488814488366  -11.47166777856944  -20.66051135159011
H        -6.47054914532992  -11.41825390886902  -20.08986501627317
C        -4.33757669759571  -11.60185824495697  -20.01751012786924
H        -4.30074315220917  -11.64461554096789  -18.93737146573532
C        -3.16586948539862  -11.67985728933935  -20.75205661875125
H        -2.21406290268795  -11.78063714033439  -20.24878649694674
C        -3.22047413986335  -11.62687481395611  -22.13516321446952
H        -2.30815310530278  -11.68295031192238  -22.71340834165704
C        -4.43732226176549  -11.50000832594657  -22.77956806740422
H        -4.48141556186603  -11.44852220350499  -23.85763380660983
C       -10.59018692508180   -6.54953098267189  -22.22974363978827
C       -10.69722174110630   -6.43391470848561  -20.84602815212252
H       -10.65040837757586   -7.32719819692963  -20.24052367884404
C       -10.87497106835376   -5.19697044912014  -20.25393767277644
H       -10.96166319153256   -5.12194352378145  -19.17833788753723
C       -10.94421056556291   -4.05418609447716  -21.03366735857278
H       -11.08199837032697   -3.08698659449760  -20.57007602773954
C       -10.83494952441658   -4.15756034459915  -22.41063236583722
H       -10.88364564437332   -3.26795865213961  -23.02379213774299
C       -10.66099354080394   -5.39426623035453  -23.00432586596477
H       -10.56593019277896   -5.47633780938131  -24.07719732265840
O       -10.77269808881838  -11.74025976924002  -23.11526076717839
C        -7.30023610726802  -12.33451127451961  -23.59351878001477
N        -8.44429008987731  -12.40792157374086  -24.31063734608852
N       -11.01725558480242  -12.08691063858061  -25.75508962295016
C       -12.23188352357512  -11.77008562192675  -26.25767107731897
C       -12.96067544145051  -10.59593815918135  -25.99089461727611
C       -14.26244570138949  -10.45775593559630  -26.67869234298304
C       -14.32903159020733  -10.40732870259949  -28.06883612788503
H       -13.41337003115374  -10.46074088958331  -28.63948178656358
C       -15.54634261597105  -10.27713714955105  -28.71183779326249
H       -15.58317600864951  -10.23437744597850  -29.79197640068772
C       -16.71805047614388  -10.19914018980693  -27.97729180940003
H       -17.66985658352057  -10.09835974428166  -28.48056272069432
C       -16.66344672539246  -10.25212581025134  -26.59418541411220
H       -17.57576793119575  -10.19605214085349  -26.01594034127944
C       -15.44659884707199  -10.37899318645461  -25.94978008175797
H       -15.40250646460412  -10.43048184550157  -24.87171443199905
C       -12.68744276510830  -12.86944112560743  -27.07126145639069
C       -11.71851234427905  -13.81882957787297  -27.03688758511394
C       -10.65870060224073  -13.31183848037396  -26.20160596874951
C        -9.48176010329520  -14.00663794894192  -25.86579358791625
C        -8.47002224703024  -13.57835770224788  -24.98736711575609
C        -7.25908006487132  -14.30202148577151  -24.68755552347318
C        -6.54394393354599  -13.54111111539224  -23.82187947884530
H        -5.59678670949367  -13.77856722969286  -23.37401470943350
H        -6.98808090513977  -15.26000527231417  -25.09117534965709
C        -9.29373568239266  -15.32946978099035  -26.49960175955148
C        -9.18670012198430  -15.44508500516627  -27.88331724453746
H        -9.23351210738784  -14.55180114607935  -28.48882084363736
C        -9.00895064626365  -16.68202880014244  -28.47540864696302
H        -8.92225824778617  -16.75705470868211  -29.55100849366966
C        -8.93971137618883  -17.82481372412293  -27.69567983038609
H        -8.80192344102258  -18.79201293918994  -28.15927170781149
C        -9.04897354321666  -17.72144048215107  -26.31871494492896
H        -9.00027749024841  -18.61104255316777  -25.70555580271387
C        -9.22292996413297  -16.48473520162566  -25.72502054051811
H        -9.31799355011579  -16.40266464122331  -24.65214885970109
H       -11.73177733196520  -14.78270175753698  -27.51131823969157
H       -13.63320501931992  -12.92009171581489  -27.57846402952045

