145
CSD_code = MEKWEE | q = 0 | S = 0 | Stoichiometry = C72H66N2P4Pt | MND = 4
Pt        2.99059060953926    2.40773322419311    6.13179046679273
P         3.39112048441941    4.43934079964199    7.36465697781562
P         3.31619770687395    0.58536505316621    7.50272423098654
P         4.59576220740363    2.76157679015226    4.42297770220142
P         0.92564156918284    2.93799993810819    5.14388696483130
C         2.58718899568430   -0.95378776641562    6.84817544916298
C         1.91092820143839    5.57559478344939    9.51697203062284
C        -0.31755093427230    2.74466807294631    7.60588282355842
H         0.69280386323370    2.57026824632274    7.95669976048278
C         5.03581265086319    0.04713389033138    7.83736422685231
C         0.91509803982063    4.61665023550593    4.43429492554147
C         2.60920507082278    0.60265305874341    9.18915951146933
C         2.95810900368966    6.24343476084634    7.18156797862968
H         2.50799742946318    6.54160255282822    6.23888225447771
C         2.97775991982022    5.74497511121881   11.66859065461082
H         3.88019492504593    5.80283945292330   12.26132631342667
C         4.40525325485591    5.62342172972341    9.59260011283060
H         5.18860712775999    5.48096830976633   10.34275043311615
N         4.46070203183010    2.08227142542772    2.89414528125899
C        -1.37873949864703    2.75340092737257    8.49284735260307
H        -1.19937997380691    2.59171997811597    9.54632139418814
C         2.22634700686288   -0.55482377972865    9.86183958329830
H         2.34235737092888   -1.51970954008546    9.38709787706695
C         3.07160864457858    5.65128219192224   10.28926708829967
C        -0.52898311249424    2.95514486250057    6.24951341680741
C         6.40524351958480    3.18755054217223    4.49571303131682
H         6.82780707404140    3.38577242361036    5.47557771347129
C         3.90186196629244    7.21342874093146    7.72571654550329
C         0.21661155694731    1.95943255371990    3.77521694757895
C         4.62550823054871    6.93669479387712    8.88943857201497
C         5.70277731892782    3.76295848846177    8.52327861291679
H         5.50740346291324    3.01818620799389    7.73475726028493
C         0.58783319019531    5.66222418951379   11.52994796140808
H        -0.37921946006999    5.66026933203680   12.01177625131303
C         1.99983894373727    5.42350155382089    8.06664769717309
H         1.03672788514908    5.27365355359892    7.58542665282453
C         5.47826037134104    4.31992381439820    3.99932689755061
H         5.38295366000014    5.12035368853784    4.73086135146936
C         1.92020453435991    1.91657184213256   11.08956923098750
H         1.80230574394142    2.88243306353635   11.55929941932886
C         1.69187301264239   -0.47099843739217   11.13469357493769
H         1.39447130706443   -1.37303098726157   11.65058809960921
C         5.48073106856118    2.39098368033074    1.88939978835248
H         5.24089259468255    1.82806818561019    0.98275310885769
C         4.14252731257398    8.41095670804007    7.05205831631175
H         3.59972714905290    8.61608159465597    6.13932027337264
C         2.45173053898310    1.83320706143213    9.81578355814962
H         2.74867438625272    2.73299487840858    9.29192496426669
C         3.77135528921373    0.80189082644738    2.81202472684426
H         3.12284302222661    0.77134166660283    3.70361921693501
C         5.04979676077851    9.32835553000477    7.54152464949266
H         5.21683200006255   10.25604672212729    7.01369865033620
N         4.44696587584031    4.48185615229405    8.67585363373828
C         6.85101459860869    4.66365990169057    8.06989791125722
H         6.55836659183825    5.22353766406565    7.18248289411034
H         7.72748996890022    4.06215231332285    7.83852591789751
H         7.12010580930790    5.37688136351442    8.84578197197975
C         6.86911383102350    2.02738556256485    2.34639786073428
C         5.74539649653267    9.06034368892011    8.71038907929246
H         6.45147695018163    9.77858257269629    9.09990601157421
C         7.29750120098801    2.44696552013604    3.60921180551014
C         6.06321630881658    2.99886527215132    9.79638634363047
H         5.20652710956107    2.42325352489958   10.13875536732339
H         6.37429173218622    3.67148746904223   10.59269437664830
H         6.88064485219169    2.31228506272825    9.59021170102383
C        -1.82333460879157    3.15905689735211    5.78057062788959
H        -1.99605553583627    3.31083804036607    4.72377854835475
C         5.48354045583431    4.78327132734371    2.61380284575757
C         1.20357562689553    7.16934602318679    3.36970189814658
H         1.31617958776838    8.16288995980186    2.96041316277481
C         2.70882288030173   -3.01623697488157    5.61954090235484
H         3.29851961308173   -3.76628321173898    5.11164120445452
C         1.74199412183855    5.75884242983703   12.29116074372420
H         1.67910282237181    5.83529377280460   13.36673422369543
C         1.98050008353561    6.12642769628677    2.88627412618080
H         2.70015040613765    6.30221777598667    2.09989824458241
C         3.33571228608027   -1.92164798228162    6.18926288233166
H         4.40990950371196   -1.82034960390126    6.12440906782347
C        -0.35810105425104    2.50170342975909    2.63210691710593
H        -0.37316150456694    3.57312075516003    2.48591194468189
C         1.84366318679865    4.86225716269366    3.42277912369235
H         2.46226855214066    4.04684722410680    3.06507015888457
C         5.53690208570787    7.86385045595898    9.37114814842441
H         6.08806558793318    7.64585379394196   10.27620087013603
C         0.13872824294580    5.66587373898053    4.91221857819368
H        -0.58267500466417    5.49436535339510    5.69949407357351
C         7.71968703785629    1.28637845882638    1.54053725992435
H         7.38341923639272    0.97144575762972    0.56173869178471
C         1.20058350595485   -1.08930686844366    6.90876411480196
H         0.61537812419430   -0.32158047506041    7.40048234872677
C         8.57086404853422    2.07900328068288    4.04375131627019
H         8.89901517955601    2.38736219897026    5.02723141891037
C         5.96094622644940    0.22960277295395    6.81378831099022
H         5.62862558376434    0.67957840923358    5.88495415270040
C         7.28173868260639   -0.14011552456649    6.97526002089381
H         7.98427671042055    0.00206222106757    6.16612064449703
C         1.53638559096863    0.76142873504334   11.75013333587867
H         1.11466207769752    0.81888181023367   12.74314051101619
C        -0.31885436297023   -0.25180664209568    2.98791082345353
H        -0.29965012232338   -1.32302491992940    3.13042009341099
C         0.23788589444933    0.57836516535028    3.94074478981143
H         0.70408031542434    0.16479174027168    4.82560751438656
C         5.46195197848957   -0.49887110502485    9.04196382240741
H         4.76375579810666   -0.63779181452913    9.85440466988355
C        -2.88340650275207    3.16644931789487    6.66805483416236
H        -3.88794906519343    3.32749337329850    6.30335019804939
C         2.87706713165724    0.73973541973113    1.57580787597453
H         2.26726905105603    1.63748919004926    1.50884450555306
H         2.21545732588483   -0.11938428624377    1.64654145545857
H         3.46215189403283    0.64503434065019    0.66347122914168
C        -0.89427478343993    0.29304196971548    1.85072669352925
H        -1.32841630359918   -0.35129322296326    1.10007819048390
C         5.46127934618525    6.14444478191762    2.31941842375667
H         5.46790571534689    6.85907700639392    3.13092908454790
C         5.42000533324451    4.30887340871732    0.25503372870458
H         5.39628352869357    3.59040882656168   -0.55264762702561
C        -0.90726315841841    1.66668451139987    1.67437127809489
H        -1.35198262425894    2.09197201740174    0.78579575867105
C         5.45312274004013    3.86106834180475    1.56601836357874
C         0.28704973677594    6.93648254529765    4.38110005882641
H        -0.31551583493335    7.74875671172508    4.76281710527881
C         5.43381455386582    6.58187256925334    1.00928760581178
H         5.42443404363827    7.64085527107577    0.79459299629833
C         0.67246774558541    5.56517270665877   10.15480778942581
H        -0.22629034094253    5.47960565295462    9.55982145572762
C         5.41540714793833    5.66326445945885   -0.02780296899532
H         5.39307521225910    6.00165984969513   -1.05313537659687
C         7.69854334926771   -0.68589073267592    8.17914577460079
H         8.73158275368494   -0.97059226413907    8.31672496255772
C         6.78807257502330   -0.85951187348317    9.20828749590294
H         7.11291618634945   -1.27921742204291   10.14973776592764
C         4.71724251400818   -0.39643648208294    2.87221207219769
H         5.37010271146811   -0.31469716684173    3.73932898537021
H         5.33819852791011   -0.45406028725204    1.98083632857617
H         4.14080086933185   -1.31453818777238    2.95702915043231
C         0.57953390368267   -2.18801497714627    6.34745800693153
H        -0.49509808294170   -2.28704063579705    6.40605052442826
C         1.33363942962096   -3.15524359948173    5.70026699554048
H         0.84875720220349   -4.01345970454627    5.25803771143808
C         9.41073496122043    1.34250454998999    3.23335468829651
H        10.39798516987504    1.07454917294789    3.58128052820616
C         8.98879682138961    0.94873820481321    1.97303332021972
H         9.64512497956271    0.37725464196373    1.33370304546083
C        -2.66372245120443    2.96763245413861    8.02324582217927
H        -3.49777851542243    2.97608569044917    8.71003927486049

