59
CSD_code = MELBEN | q = 0 | S = 0 | Stoichiometry = C28H24MoN2S4 | MND = 6
Mo        8.76614639951394    0.13126397557503    3.45042460278017
S         7.56712899614824   -0.86212992828026    5.22352773179474
S        10.82474951285938   -0.71212998558167    2.40076135433927
S         6.70165519767809    1.15594053231892    2.63834053390051
S        10.13900108315144    0.61050790363529    5.37658353714346
N         8.13563875330650   -1.56384871846879    2.56960668914664
N         9.43694249051603    1.94609861547204    3.09101592498344
C         6.73398122296768   -2.12770322808386    4.37342699369878
C         5.75771593683695   -2.89732478379369    4.99447953711764
H         5.45234836628440   -2.63235539242725    5.99501512293685
C         5.21302624969671   -3.98833371169715    4.34614389691900
C         5.71185527213438   -4.32297956165091    3.08376296538259
H         5.34449874057343   -5.21312498302667    2.59368251857827
C         6.66976574721191   -3.56263464271002    2.45439858527831
H         7.07070482035835   -3.89230771517945    1.50889974545025
C         7.17318262228312   -2.40316369834576    3.06692532974654
C         4.14671724160148   -4.82476611001989    4.98242113847685
H         3.93213006185983   -4.47779317922089    5.98923913189701
H         4.45790896443780   -5.86733826498714    5.02923443975346
H         3.23007658301853   -4.77741146594790    4.39524203208470
C         9.93157403850318   -1.32937948078278    1.03645425724426
C        10.49315030448521   -1.43955036449786   -0.22556688864186
H        11.53555159258775   -1.18878648686032   -0.35240858379375
C         9.72516926002860   -1.84493068590835   -1.30582712071758
C         8.37017414231048   -2.09193774089883   -1.10138413484885
H         7.74415893906335   -2.34936290134742   -1.94329681516129
C         7.80358452358912   -2.00969059008365    0.15475399745026
H         6.74087616859953   -2.15778802688939    0.27659861299478
C         8.58371566112380   -1.67558488148483    1.26472801159538
C        10.34244496953958   -1.99724904649940   -2.66211525857270
H        11.11664173203524   -1.24998938827049   -2.82217950089527
H         9.59218770577352   -1.91030678333609   -3.44456987609745
H        10.80682123956232   -2.98003207350788   -2.74843663120326
C         7.88267947079201    1.42291588011194    1.38068935471132
C         7.57276258448842    1.23359305960513    0.03158398478317
H         6.57667492122457    0.89977933075566   -0.22157479248657
C         8.50898452335711    1.47172581765840   -0.95259851736560
C         9.78827934032756    1.91153311109733   -0.57968820257289
H        10.52895245243889    2.07780052048480   -1.34775810698289
C        10.12083581624730    2.12449599038639    0.73418301837363
H        11.11761298900984    2.43875608361107    1.00853833170687
C         9.17578970582539    1.89671610331563    1.75293548642172
C         8.17892322415613    1.27785037568932   -2.39748943581252
H         7.25887725418921    0.71208278117560   -2.51241629254082
H         8.98580296303252    0.75199244948658   -2.90254742547208
H         8.05278092202737    2.24527274776096   -2.88388993814840
C        10.87603794079214    2.11487088411694    4.90218407070182
C        11.84483536549580    2.75810973994833    5.66132233084979
H        12.15802639944436    2.31257801040895    6.59265541525956
C        12.39187834690670    3.94905333071142    5.21904628371681
C        11.94300529469002    4.49428354023633    4.01167512286383
H        12.35479282084479    5.43506255723033    3.67634575419408
C        10.98195586627880    3.87069267670234    3.24854666475545
H        10.61728597047053    4.32776338205408    2.34005031673855
C        10.43490645687502    2.65940974409886    3.68675189291857
C        13.43573970942281    4.66580074070809    6.01870043601467
H        13.73704678382254    4.07592094440657    6.87962684502926
H        13.04923152141858    5.62174165177858    6.37098288750288
H        14.31317681803259    4.86752133895049    5.40626263357593

