66
CSD_code = MELBOU | q = 0 | S = 0 | Stoichiometry = C37H8ClF15FeN4 | MND = 5
Fe       11.77262595627808    8.08236938192637    1.51780060636086
Cl       10.87380181853917    9.48742297478971    0.40649102677628
F        16.24193078021840    5.57975971523605   -0.60499049709954
F        17.65442877952755    4.56712413664715   -2.68009926756100
F        16.60271841116340    4.60667871079110   -5.19667361316429
F        14.13088137438162    5.68104245838132   -5.61565039660116
F        12.73704539202994    6.72307026013469   -3.54078414440694
F        15.67944551113031    9.69895813828250    4.98282008446202
F        17.54624661067778   11.48076702274732    5.80547608772277
F        18.07443114249564   13.69498119189265    4.30286783274604
F        16.71051055199582   14.11298933746529    1.97863173686992
F        14.82780301952903   12.34015259861130    1.17460042275889
F        10.77779889325385    7.99696648470572    6.94023742234069
F         9.22039866377010    8.37698421680267    9.11718801417737
F         6.63456993513959    9.19527265625183    8.82353584370962
F         5.63118689300074    9.64289738568337    6.32679129747989
F         7.20327971616139    9.29980934850144    4.15262211934732
N        11.71022253994879    6.59932849856210    0.49455590951766
N        13.57027843300098    8.40740928838162    0.89020571375280
N        12.04197014965559    8.90763413817096    3.16437037918521
N        10.18886276350208    7.31168298163792    2.22759064944686
C        10.56007730936403    5.83031050382778    0.53827673958209
C        10.61960421325160    4.85059572812170   -0.46895977341727
H         9.86994187810445    4.11047709276635   -0.66797506942734
C        11.81491138897185    5.02297520867174   -1.12758969393342
H        12.17273472974994    4.45160619321800   -1.96214562757837
C        12.48214340471479    6.13168095400834   -0.54064217187709
C        13.68545879541177    6.74463816318334   -0.89166115285570
C        14.19331533368819    7.83932055600654   -0.18420321154118
C        15.45903425433599    8.47861826509411   -0.38889614029433
H        16.15286095104857    8.25138984711442   -1.17400867682398
C        15.60909957418270    9.39399630021008    0.60148219749483
H        16.45228026771282   10.03266902271982    0.77551162937753
C        14.42525878587779    9.33305693541756    1.40519965127481
C        14.18805513012590    9.99969164085953    2.60764411728742
C        13.07136955288071    9.79074866787470    3.42206008897886
C        12.76592996936664   10.54450484525355    4.58969250725171
H        13.36986955795967   11.32887562838586    5.00171091305507
C        11.54960878428676   10.12700213001752    5.03830311297558
H        11.01087854567345   10.50589140646164    5.88446244415879
C        11.09864701336031    9.09926500750456    4.16629228126804
C         9.87381873096118    8.42889927594936    4.29415807121158
C         9.44168846754161    7.51159045198951    3.33513103678193
C         8.38250078276934    6.54473223804053    3.34807956712718
H         7.62467742616392    6.45941983547586    4.10202993918766
C         8.54601258862509    5.75201817284093    2.24874591709811
H         7.95004520820006    4.91172040895914    1.95242167421679
C         9.70253218594042    6.22997680282190    1.56845921174773
C        14.45857768429586    6.19026658250180   -2.02206667525874
C        15.72123327854298    5.63108730211227   -1.83416151555379
C        16.44992621901532    5.09845071289152   -2.89242149413753
C        15.91399154638381    5.11564794172180   -4.17721399656910
C        14.65194775748278    5.66411980119487   -4.38872562521112
C        13.94042736732511    6.19149939794467   -3.31587406289779
C        15.20293338454692   10.97606741006792    3.05983326958297
C        15.91420204080729   10.78573830039974    4.24362214471689
C        16.87999936515772   11.69129229247896    4.66996499405156
C        17.15263620094516   12.82117496066829    3.90325162632040
C        16.45612752224835   13.03182823852547    2.71625537652420
C        15.49532080754928   12.11246699647810    2.30740832721380
C         9.03807331966346    8.65341974548798    5.48648284579659
C         9.52374230174170    8.42626186639986    6.77475034232015
C         8.72679491456223    8.60620493086508    7.89979667233728
C         7.40568077891445    9.02049555566353    7.75211229940482
C         6.89555824515839    9.24703538410245    6.47666638355090
C         7.70893509999601    9.05987037209971    5.36405227765831

