59
CSD_code = MELCAI | q = 0 | S = 0 | Stoichiometry = C30H23ClNiO2P2 | MND = 4
Ni       11.34249227899084    4.01463499110733    3.02944593918823
P         9.55569361058503    4.72005582332826    3.94965117882264
P        12.97264199022507    3.75360754949622    1.67448076215197
Cl       11.22021093592568    2.05494415910471    3.75699846292854
O         9.51996713066204    6.34582574897073    3.74013151124008
O        13.31648630675862    5.24159574348127    1.08509937864557
C        10.50410160887410    6.75651409519030    2.85349348758027
C        11.42323492104074    5.80089846872342    2.41834557959675
C        12.41440261839947    6.19889335688831    1.52185251639314
C        12.50297149961597    7.51042905448873    1.08305691787648
H        13.28211894742528    7.79358538333103    0.39300260465897
C        11.58005257253123    8.43620692619889    1.54262222302187
H        11.64327326228312    9.45922086652000    1.20538239692788
C        10.57491105938340    8.07175410896687    2.42459501975818
H         9.85131160689009    8.78993019007057    2.77638310316520
C         8.17574033517408    4.16124516842995    2.89130324936672
C         8.49456818648983    3.50581380771339    1.70870645770106
H         9.54236465700248    3.30619518794645    1.47790085641359
C         7.49198684491168    3.10186250361783    0.84676008992269
H         7.74128313962904    2.58895423669329   -0.07037054353626
C         6.16844581068345    3.35738235534427    1.16737268684501
H         5.38175996362043    3.04204239173610    0.49780927119110
C         5.84846197622334    4.01533525230897    2.34504282839793
H         4.81466093875969    4.21166503537524    2.58925119138360
C         6.84911156880622    4.41879280319755    3.21060594825136
H         6.60904692788495    4.93070986703478    4.13191491328986
C         8.87644038062723    4.54835831097265    5.61173079975904
C         8.63104227359978    5.64053742632406    6.43335451697329
H         8.84497846674576    6.63708917185017    6.07678215635630
C         8.10884299721873    5.43802472636286    7.69884313712849
H         7.90964999574085    6.28495521570610    8.33934805352116
C         7.84625468992444    4.15348176991376    8.14632262087640
H         7.44141623126512    4.00122978980747    9.13611173643409
C         8.10844629260172    3.06276155374404    7.33094577640872
H         7.91231778323618    2.06210114381264    7.68621700496307
C         8.62572219581762    3.25615867707865    6.06440365788578
H         8.85101566040842    2.41659462188813    5.42109984590130
C        12.62207940653505    2.79559502741702    0.16313934105199
C        11.87681198339021    1.62628335090599    0.25681149302712
H        11.49211423228773    1.31302015170768    1.21835617417448
C        11.62882590992593    0.87859345890189   -0.88043469671284
H        11.04860877925151   -0.02960253958522   -0.80971342249217
C        12.12055203801691    1.29540006150970   -2.10673554411787
H        11.92427314837130    0.71167829422660   -2.99426356170933
C        12.86289807876796    2.46220878666277   -2.19841536828476
H        13.24532331610654    2.78599004476084   -3.15556235049953
C        13.11721190180931    3.21333481233856   -1.06560586496296
H        13.69217223835267    4.12570396267967   -1.12731257632078
C        14.62200839715434    3.11189407198181    2.06616643458733
C        14.70316900662372    1.87400781267016    2.69501686400421
H        13.79469603216339    1.35552643757464    2.96871789979292
C        15.94217399012395    1.33295098570916    2.98269749488594
H        16.00945829929324    0.37365105620868    3.47403559432902
C        17.09623866696538    2.02318161687151    2.64580832540259
H        18.06384139997547    1.59945170348016    2.87179513536203
C        17.01225344307502    3.25925952126418    2.02607267126377
H        17.91295384347903    3.79819716728941    1.76978522713621
C        15.77624710955588    3.80885459797757    1.73554852527197
H        15.70226111305509    4.77533213465441    1.25969486748614

