47
CSD_code = MELDEP | q = 0 | S = 0 | Stoichiometry = C12H24N6O4Pd | MND = 4
Pd        2.28722397052914    4.53347629565749    6.19730535249831
N         1.43250530509423    6.17164514953017    5.14584032779179
N         0.95742069559628    5.06325095272961    7.62267385786909
H         0.57832566198810    4.53681189820531    8.40884409821479
N         4.56644758764178    8.07221249301644    4.73868230643705
H         4.49894189477330    8.36324431242306    3.77999620491242
H         5.42837327957889    8.24385238549072    5.23092670383480
O        -0.79551457771647    6.47316365714624    7.95885895318121
O         3.76909614822957    6.85369875980654    6.44818344235632
C         0.21066499301536    6.11508160256759    7.35103472561418
C         0.75630177733877    6.96815363493052    6.18471707571017
H         1.47807018431785    7.65020333790072    6.64161004658711
H        -0.05841319246205    7.56529719118861    5.75398371246583
C         2.41541939195046    7.00688345548828    4.45502698712172
H         1.96650424739593    7.96867427079378    4.15827156786380
H         2.75469859824866    6.49323270237788    3.54941358537816
C         3.64009420988129    7.28379068355587    5.32362110532500
C         0.46224219148105    5.69084459147965    4.14586172027650
H        -0.00113455717435    6.56340772066783    3.65470713980952
H         1.01545240671936    5.11591886204025    3.39386051839622
C        -0.62480693448384    4.79986407320419    4.72752341023334
H        -0.16716553172009    3.92462702623447    5.19252015133605
H        -1.27672568873727    4.46584921145439    3.92292199739935
H        -1.22707465828422    5.32780149385985    5.46241334586665
N         3.14155022750004    2.89506076772977    7.24865133279688
N         3.61676879928922    4.00350340065274    4.77171637752898
H         3.99632521196156    4.52990112193578    3.98571564740676
N         0.00488174159278    0.99940153839301    7.65820127281181
H         0.07174085050321    0.70948699040438    8.61745780699106
H        -0.85771380886249    0.82968486337814    7.16667229242440
O         5.36945772750403    2.59319706683364    4.43578217963752
O         0.80454364111659    2.21431704364350    5.94678141871896
C         4.36322434821128    2.95144310863161    5.04341580451979
C         3.81701015422269    2.09837157498281    6.20942528542342
H         3.09457932337927    1.41716054304269    5.75235682852815
H         4.63125905840665    1.50040199932914    6.63990131251310
C         2.15852215518886    2.06012128542594    7.93967812673176
H         2.60686934283163    1.09762004680401    8.23493796202516
H         1.82066610006434    2.57302714857189    8.84622059869988
C         0.93285519578445    1.78503186605021    7.07196413813219
C         4.11239479281037    3.37534216046963    8.24828322751395
H         4.57597296062810    2.50250880135866    8.73878364267399
H         3.55968723738718    3.94996535933228    9.00089612514422
C         5.19919252237045    4.26649245323214    7.66640793561969
H         4.74135139062658    5.14183057307206    7.20178851092083
H         5.85144953352965    4.60031714000018    8.47081557628655
H         5.80116409075268    3.73872738497555    6.93114826047162

