113
CSD_code = MELHOA | q = 0 | S = 0 | Stoichiometry = C56H50O2P4Pd | MND = 4
Pd        4.26135569544411    4.81392776839290   12.01732738715298
P         2.58984963815679    3.96742055528007   14.49740554455085
P         3.47298309234603    6.38618232268450   13.52623287805620
C         0.98606961593261    3.93801549554215   13.64461082579099
C         0.89295507706560    3.94631344745610   12.25928908439699
H         1.79118889898568    3.84964198776164   11.65221727398672
C        -0.34776726970430    4.05159324888465   11.65712134960749
H        -0.42431608178046    4.03620241001751   10.58011032467023
C        -1.48878518781675    4.17936201412702   12.43056445833736
H        -2.45542401290765    4.26604924708619   11.95661392405018
C        -1.39423223613459    4.20146972008694   13.81369397258688
H        -2.28454504742780    4.30908031171025   14.41612067391786
C        -0.15989791886417    4.08479334540879   14.42146193594701
H        -0.06941460411710    4.09787204511914   15.50111160104075
C         2.34289357496099    2.85840230706540   15.90157644312819
C         1.85527068590544    1.57980268215382   15.65027455487399
H         1.59767228817389    1.30062224184231   14.63679984219530
C         1.70452889276083    0.68673488617461   16.69312597328377
H         1.32750775612587   -0.30723426327078   16.50275398576132
C         2.04190096738050    1.06622206236947   17.98381054818362
H         1.92414112304527    0.36627921293305   18.79791903071678
C         2.53139075598635    2.33785670634536   18.23332643176164
H         2.79358756205485    2.62869317479586   19.24030325784428
C         2.68672886275588    3.23641434968409   17.19256426167841
H         3.06671168868003    4.23343869194778   17.37041225066582
C         3.15437813075626    5.52550250085542   15.05152575690515
H         2.44494717366246    6.04145514789444   15.70828580622734
C         4.26370565621154    7.91317739273307   14.12005747104832
C         5.19698878403875    7.81202632614466   15.14819707828096
H         5.39112231339127    6.84377963280730   15.59042389425257
C         5.84867158645164    8.93697646491367   15.61419715025833
H         6.57014701561232    8.85134412521413   16.41400885099659
C         5.57525705180964   10.17589143567382   15.05723824068983
H         6.08638863332576   11.05645553845405   15.41801460501988
C         4.63843708250562   10.28437101616596   14.04332747514748
H         4.41393053848185   11.25108574461826   13.61557134815449
C         3.98500420850329    9.15986239554231   13.57224490855138
H         3.25062349092341    9.24817428380147   12.78373150113203
C         1.93436963726283    7.03756443796361   12.78796978120739
C         1.04193523281161    7.78772640241513   13.54807633656226
H         1.29021538399519    8.03636190051759   14.57202694657492
C        -0.14683994787108    8.21553947111601   12.99071454819490
H        -0.83973362691879    8.79731281571690   13.58151847587908
C        -0.45162964990491    7.90265313631300   11.67436175213064
H        -1.38093016027646    8.24399056850658   11.24249134905383
C         0.43043062136688    7.15272156252124   10.91641113423536
H         0.19251789372477    6.90921729304798    9.89125550991361
C         1.61490282336975    6.71161180043272   11.47689747179582
H         2.31835078320503    6.10991342974826   10.89658104126376
C         4.77460515809249    3.25380247274442   10.68183391426104
H         5.27525644583154    2.42190382422604   11.20648393212716
C         3.48411821046705    2.79764639944391   10.13446395317027
O         2.93232587852208    1.79163772055665   10.55268355786525
C         2.83490664285254    3.62745523089038    9.04288190434810
H         1.84828052293578    3.22328093514567    8.82241231807363
H         3.45646316012982    3.57737514750156    8.14847577075138
H         2.75396618145613    4.67295409518516    9.34634776570529
C         3.74904604538033    3.25395482482080   13.35354877035460
P         5.05083865790917    6.38628596941858   10.50937040560783
C         5.36942170117473    5.52556068417843    8.98408451868191
P         5.93386398283445    3.96741652526042    9.53813757716929
C         7.53759346409253    3.93804557054115   10.39101359829976
C         7.63065722065596    3.94651668162586   11.77631652561306
H         6.73238680483619    3.84976913166569   12.38336717149579
C         8.87136503205872    4.05185134258213   12.37849617278962
H         8.94792500784132    4.03643758670335   13.45553860155977
C        10.01240050204068    4.17938114529277   11.60509256053946
H        10.97903265502029    4.26606260157466   12.07906055293081
C         9.91789968167588    4.20122590677213   10.22198645159678
H        10.80828287028134    4.30880674582480    9.61954861162906
C         8.68358020645322    4.08463022285735    9.61420062196579
H         8.59307055936708    4.09773008819098    8.53450257344103
C         6.18096900274291    2.85848516216363    8.13392220220215
C         6.66872730474601    1.57992928882232    8.38518487147478
H         6.92642045429197    1.30076948339445    9.39864291679648
C         6.81946815283839    0.68687263555069    7.34232583578792
H         7.19657215496442   -0.30706954245472    7.53267731611237
C         6.48196508326356    1.06633116342027    6.05166429084245
H         6.59969206893197    0.36638783829952    5.23755143590695
C         5.99239572168894    2.33794131554390    5.80217632174072
H         5.73012771927631    2.62876372628693    4.79521173010211
C         5.83705097506837    3.23648616771891    6.84295207990194
H         5.45700386661392    4.23349061447211    6.66512808125238
H         6.07889333710391    6.04147025282741    8.32733331469782
C         4.26010957930341    7.91325230262663    9.91550426759042
C         3.32680579570905    7.81210578170101    8.88737615650066
H         3.13269569515302    6.84385694826047    8.44513997844396
C         2.67509493268869    8.93704933311377    8.42140721620191
H         1.95360319822099    8.85141954780937    7.62161021301100
C         2.94850524297228   10.17595743875567    8.97838727668725
H         2.43734919174763   11.05652177796649    8.61764587476963
C         3.88534468256344   10.28443297070132    9.99227752443565
H         4.10984256807249   11.25114487700594   10.42004395246912
C         4.53880747289199    9.15992820267658   10.46332950065269
H         5.27319689478168    9.24823917929297   11.25183196319938
C         6.58951555864088    7.03766044822834   11.24754424025511
C         7.48197494080011    7.78764342340103   10.48729435049033
H         7.23368187613626    8.03612154930680    9.46330951691212
C         8.67077787166978    8.21550372951313   11.04456217005406
H         9.36368837148970    8.79714700522617   10.45365347827599
C         8.97558445517646    7.90284554530746   12.36095924731076
H         9.90490528619912    8.24422150509471   12.79275237841581
C         8.09350719920948    7.15308738018466   13.11905728667383
H         8.33141261755407    6.90974658385310   14.14425111805569
C         6.90901590926480    6.71193802279012   12.55866659821243
H         6.20556148933868    6.11043428347182   13.13914678867920
H         3.24835143422692    2.42207120572803   12.82891920032498
C         5.03934738960486    2.79746230979021   13.90117278516736
O         5.59102314933034    1.79139918515835   13.48291367400171
C         5.68898087362294    3.62757186123106   14.99226594439275
H         6.67530067241701    3.22296585319001   15.21297037763581
H         5.06738921467113    3.57830657171427   15.88662474160757
H         5.77050952924859    4.67280542364659   14.68828770521087

