42
CSD_code = MELJOD | q = 0 | S = 0 | Stoichiometry = C15H22ClNOPdS | MND = 4
Pd        0.19978326993790   -0.09426819241687    2.00963155628655
Cl        0.22669322469764   -2.21993634111715    2.69279657764915
S        -1.90231821832772   -0.36488998880353    1.17221147666964
O         2.03277361165166    0.18030049522036    2.75185673114929
N         0.09143079740685    1.85225712315624    1.47183380601653
C         2.84004589369443    1.10805231852711    2.39084841421300
C         4.24380888404005    0.89221982586536    2.59391190748346
C         5.13267957292759    1.90381909042569    2.34075947949798
C         4.72195086063860    3.15812230822831    1.87083959235678
C         3.39966386414555    3.37643163833646    1.61851523471332
C         2.43343370636452    2.36926724968849    1.84030321842179
C         1.08993399079029    2.67406387254413    1.50734361676460
C        -1.23877587230059    2.35500179102763    1.19484679601534
C        -2.06728814350284    1.31384941194359    0.44765507665438
C        -2.72109435201502   -0.14825421134983    2.78747086412505
C         4.73094903990087   -0.46166135113770    3.04750329274315
C         4.33352809517636   -1.55198252243734    2.03952190683248
C         4.88460627875115   -1.27598857242593    0.64566792229180
H         4.62228893364699   -2.08606755883497   -0.03107304552284
H         5.96982111198479   -1.18657333822941    0.67081817280944
H         4.47588002739711   -0.34931472992483    0.24682790794180
C         4.21945784379122   -0.81563690384362    4.45129253515214
C         4.64826457576428    0.20819815654090    5.49488554912920
H         4.29307209928615   -0.08449075053174    6.48042417074666
H         4.24055671301477    1.18934389228410    5.25983535187169
H         5.73355758495365    0.28962273599233    5.53145412477461
H         6.18714424191260    1.72816708996168    2.50175977703574
H         5.45267660448376    3.93241801479838    1.69479679329348
H         3.06857132227502    4.32790858903219    1.22539866211395
H         0.89949737175541    3.71901385783501    1.24208861705855
H        -1.73360193547227    2.59924740633330    2.14656641238158
H        -1.19168033593198    3.27889270352465    0.59910679919332
H        -3.12361666375941    1.58164021242123    0.42929277122916
H        -1.70571882980182    1.19807656055295   -0.57534160560881
H        -3.74741364502482    0.17467071835042    2.63265892668265
H        -2.17104995039376    0.55870946395143    3.41479429302845
H        -2.70262990129524   -1.13262006957460    3.25169501436225
H         5.82687855601090   -0.42031616209485    3.08632533296332
H         3.24446916257738   -1.62665221943708    1.99532058689713
H         4.71683053730656   -2.50968001087438    2.39817772217927
H         4.61206167606813   -1.79789144854944    4.72380496698558
H         3.13197839547540   -0.88507015496190    4.42577269341370

