68
CSD_code = MELJOF | q = 0 | S = 0 | Stoichiometry = C30H32ClN2O2Rh | MND = 6
C         4.14154728027757    4.89406828078658   12.21549252610342
C         4.13840594010891    5.39368995681216   14.38736400775332
H         4.51251228084856    5.80496241349809   15.30200922978345
C         2.97766124836976    4.75467145306022   14.11475963500269
H         2.15471770938868    4.49966292717788   14.75051281577000
C         6.08545104804054    6.17776892278916   13.03821696216924
H         6.32380812081897    6.13203324165066   11.96476469222397
H         6.87726678496124    5.68056239531143   13.60912764108041
C         5.93653254545709    7.61287371804244   13.47506326186655
C         5.00791387457955    8.42413733980591   12.83351530259631
H         4.42354258292884    8.02452237422154   12.01675866573376
C         4.83438194058022    9.73399771650404   13.24035045727337
H         4.11043873541446   10.35793468874909   12.73835612610101
C         5.58658416625127   10.24395759423323   14.28626275366906
H         5.45066430327083   11.26748657410836   14.60318323914911
C         6.51432233209490    9.43991254586146   14.92509930703634
H         7.10389754345761    9.83356214303489   15.74017807985952
C         6.68621887524078    8.12605577037573   14.52325913434199
H         7.41052219222668    7.49945452288697   15.02569069062901
C         1.95364951411653    3.83062650927678   12.01304324555981
H         2.07676180400704    4.19792551886241   10.98104189981667
H         0.97594989879773    4.15485061509437   12.38528086303641
C         2.02731002375843    2.32703354887747   12.01967295429655
C         2.72195554942173    1.65145273943492   12.96040986417713
H         3.24931542441961    2.14823602191312   13.75961422415664
C         2.82517779005911    0.20632023083097   12.96357785696555
C         1.48485599822884    0.18632875142736   10.98955485448758
C         0.88947780263989   -0.61168698740678   10.00306074626606
C         0.15709079536495    0.00411766405034    8.99248481076291
C         0.02788487538035    1.39347959983565    8.98232866436538
H        -0.54230963262856    1.86253512952359    8.19448505250085
C         0.61071909934200    2.17478943961782    9.95021656708237
H         0.49132637334102    3.24484035494381    9.91184383764722
C         1.35791823800873    1.58644578465096   10.97753605025538
C         1.04675036787302   -2.09978683004647   10.04667409947570
H         0.07202373076779   -2.58279956445541   10.09908188968927
H         1.63205052105497   -2.39425009620570   10.91155356487463
H         1.54658243746548   -2.45471948934656    9.14623635827869
C        -0.48969498170271   -0.81777222630998    7.92384128357383
H         0.25525921288543   -1.40694099838382    7.39073179033829
H        -1.00907840273421   -0.18429720881276    7.21022022375797
H        -1.20679507112900   -1.51260822192071    8.35925327516839
C         4.30298523121391    4.50035433661076    8.12217777774916
H         3.33068128342617    4.90747929115407    7.84322440539295
C         5.33243647270181    5.39171129053817    8.33855923242211
H         5.12869577476094    6.45310851416395    8.19210434813131
C         6.80255649324712    5.04270287447839    8.31125971675897
H         7.35884554225434    5.89188926472383    8.71744931750123
H         7.12355999799114    4.91461259770493    7.27157384258565
C         7.14478391739909    3.78260229041254    9.12942344105186
H         8.16979514225146    3.87116679706320    9.49582847732252
H         7.10688754303799    2.89466849023892    8.49676055765754
C         6.21289206280885    3.58953234046892   10.30807940440884
H         6.70360119997435    3.65211194947086   11.27862139834286
C         5.04812671235370    2.82102850567136   10.24711023824363
H         4.73679652477739    2.32088518874486   11.16480511240469
C         4.53186610972519    2.13434678852052    9.00318411031474
H         3.51353357518924    1.78886043655316    9.20445841892656
H         5.13845204594115    1.24315076065207    8.80556850607256
C         4.51347542929301    3.04663163853878    7.76187829954184
H         5.44575444694872    2.94972773900233    7.20385904519439
H         3.70629691224112    2.72239996209839    7.10146611710456
N         4.83881712385858    5.46803495292465   13.21084288930913
N         2.99461380055856    4.45966472815093   12.77690943228351
O         2.19132838616355   -0.45463343337614   11.95283573093602
O         3.42779039000798   -0.44489030323426   13.78163492365882
Cl        3.10388759505222    6.65978097594934   10.19813451211979
Rh        4.50596941374168    4.86003715859904   10.25194223986682

