104
CSD_code = MELJUL | q = 0 | S = 0 | Stoichiometry = C46H48ClN4O4Rh | MND = 7
C        12.41996598448307    2.70094936176494    7.20897996877248
C        13.61621490960844    2.62168360845011    9.08482401667703
C        14.20673999459866    2.84093111674043   10.32067754635799
H        14.03551175744308    3.74922629445681   10.87523935861750
C        15.01556674108923    1.83888864138863   10.82205778647502
H        15.48790601069296    1.97289522391777   11.78328234872979
C        15.23583190754961    0.65378282863868   10.12041554749702
H        15.87227514973464   -0.10258674215370   10.55411679756152
C        14.65677808898179    0.42621698422462    8.88676113663748
H        14.82226943651638   -0.49316552821159    8.34741661424936
C        13.84554475328644    1.42834564310931    8.37790661987585
C        12.36721540945582    4.72249188045714    8.66768961592272
H        12.09799571037503    4.74550399743215    9.72544125781982
H        11.50086779249617    5.00966385179558    8.07127615225081
C        13.50995679505612    5.69088171143014    8.35716530206899
H        13.77529182498265    5.56340458632184    7.30569363233955
H        14.38515391046062    5.45066638380135    8.96745965409555
C        13.09962073363034    7.14512248935202    8.57465345653073
H        13.91294269293020    7.78475844651927    8.22546307315887
H        12.22474059928794    7.35317709065963    7.95782349928350
C        12.79579089300962    7.47627492195663   10.03117371573152
H        11.90689145106080    6.95335399131660   10.37362784681175
H        12.61897759339484    8.54344931796834   10.14261545568454
H        13.63336354193768    7.20231419068064   10.67142727626476
C        13.05719212653096    0.58268686935015    6.14435839481038
H        12.48071247098321   -0.28885195874311    6.47017098006443
H        14.07807988067685    0.25215003014471    5.90955978755624
C        12.43650377583667    1.23672894780137    4.91852135021111
C        12.99132268436111    2.48997517350685    4.49693259165677
H        13.85283638214896    2.90565452241122    5.01877084734928
C        12.98656594933533    2.86120223608391    3.08946999668325
C        11.65444907568968    0.92777620863631    2.60471933197903
C        10.95687696507058    0.24116500641864    1.60669061144206
C        10.44445860670115   -1.02483055309254    1.88433261081712
C        10.69534816076392   -1.59783091978726    3.12582431550813
H        10.34473263872118   -2.60003001040810    3.32692039297354
C        11.37801568377399   -0.91248322463640    4.10729448070895
H        11.55820544187941   -1.39622806162783    5.05309303362892
C        11.82602727944435    0.39425331892732    3.89470487249100
C        10.78052574160503    0.85576508177319    0.25241531700139
H        11.24813235761834    1.83412162381179    0.21701750670324
H         9.72236276450595    0.95781161990969    0.01426520912687
H        11.23625950027740    0.22363205118900   -0.50873615514587
C         9.65862653224018   -1.76625561945021    0.84950993846008
H        10.26093691487930   -1.93568271264280   -0.04205506383994
H         8.78371759560442   -1.18873776807968    0.55184775797260
H         9.32888258076713   -2.72851854479378    1.23228480494666
C         9.92737268473906    2.90807423464457    4.02697208141871
C         8.74833824015281    3.00221571815601    2.14133004774379
C         8.23044100496484    3.27934492408493    0.88479798148019
H         8.61593069220688    4.08425202763562    0.28035165756752
C         7.20627070712118    2.47062645158643    0.43030719503433
H         6.78195793008272    2.65384502079595   -0.54511353498413
C         6.70706564608577    1.41846629692750    1.19775371436884
H         5.90849032815399    0.81113645304397    0.79940062381262
C         7.21261402897996    1.13532168621967    2.45207633228658
H         6.83025212447537    0.31720138005944    3.04201078656733
C         8.23966632969341    1.94352373919445    2.91399439597888
C        10.46471545145764    4.76509757370857    2.45393397956054
H        10.74239837300749    4.65513780059569    1.40385139774614
H        11.36829807142994    4.87570462516852    3.05403632068587
C         9.58563215077963    5.99693264725546    2.67689826787515
H         8.69955266291953    5.95091783438250    2.03765835891373
H         9.26083058170892    5.98899451523481    3.71931802195069
C        10.35189954885021    7.29275512648290    2.42467835590463
H         9.70569590641896    8.13026942704587    2.69630408997820
H        11.21956291513146    7.31389682535221    3.08489498684059
C        10.80059571319261    7.45669432995492    0.97726979638707
H        11.55003397230863    6.71475280200881    0.71495468484079
H        11.23945266597447    8.44078711419025    0.83144134553066
H         9.95487667220324    7.35794984839549    0.29797023027507
C         8.80846070484670    1.06717258545639    5.20292849469212
H         9.15781725943649    0.06614908393046    4.93067340510706
H         7.73966032105624    1.00412545697913    5.44836194745724
C         9.57631753717133    1.62065499471969    6.39462789908521
C         9.34031669433078    2.99109664323719    6.74416446545537
H         8.59718473725689    3.57100017739081    6.19759838929761
C         9.44985440048854    3.42664773392070    8.12899025907002
C        10.29313148210469    1.26226319273135    8.72205777735939
C        10.82686721162182    0.48667729439148    9.75522948556775
C        11.02083553074569   -0.87809699719530    9.54932611139852
C        10.61506397636312   -1.44401787972464    8.34612472990495
H        10.71250760871032   -2.51074492919585    8.20328788698434
C        10.09671282037832   -0.67195840693629    7.32903884455437
H         9.78752728273083   -1.15170246789477    6.41506323551192
C         9.97902023997209    0.71413162464933    7.46530406775750
C        11.16948240135224    1.11643866201838   11.07011595266969
H        10.94190858830104    2.17710950477283   11.05230709119625
H        12.22746742836550    0.98289823778863   11.29320370656125
H        10.59659294058284    0.64984690834158   11.87050273382320
C        11.63307116580538   -1.72484848487484   10.61997596385630
H        11.72604149982993   -2.75610139309713   10.28967548604425
H        11.02388603764787   -1.70348726906970   11.52266353486673
H        12.62239162666174   -1.34943796579702   10.88059686736085
N        12.74600566030190    3.37177255901459    8.32614760140233
N        13.11266272615035    1.53499753676931    7.22494118708424
N         9.77158986146562    3.56826756910995    2.86775997299930
N         8.97633633598844    1.94214768979273    4.06970964205401
O        12.19321593238207    2.12802339988206    2.24597587136977
O        13.64122853492995    3.74552991577854    2.59432705115225
O        10.05855166613852    2.57394730229963    9.01244485646873
O         9.03030658863528    4.46711612856109    8.57302845423636
Cl       11.46449313741396    5.26993017413280    5.54963024019932
Rh       11.18316086738964    2.89184940726772    5.61542507715614

