94
CSD_code = MELLIB | q = 0 | S = 0 | Stoichiometry = C33H52BF2IN2P2Pt | MND = 4
Pt        2.94338837302444    7.72347672188424    4.24672268056472
I         2.80675788876305   10.30920691331074    3.66483618003227
P         0.74301074260672    7.77974667666811    4.90517589292581
P         5.14105685179788    7.71880122038812    3.58710179063218
B         3.44390539585312    2.93818149344755    7.13685781149571
F         2.44358990677707    3.15462594022589    8.07977116862980
F         4.67986341132961    3.16850334031093    7.72727471837380
N         3.24904750474673    3.88526686388992    5.94510123230299
N         3.36285995371195    1.49850813498286    6.60214369676634
C         2.89263979938886    4.66393921081777    3.84596361484994
C         3.03969306577548    5.74986133194280    4.69292595393614
C         3.25898957958398    5.22312007582214    5.98285861028354
C         3.48285800051037    0.37904254421677    7.32684648335495
C         3.33301299057532   -0.74018550638905    6.48855864457426
C         3.09882945430351   -0.26369640176518    5.20419454620421
C         2.95766923210073    2.13741883363845    4.30557834837259
C         3.12682459669811    1.15451094842385    5.28535929692986
C         3.02229271945463    3.48469235333404    4.63980132320530
C         2.65558149291960    4.74549175113261    2.37708773309820
H         3.40563007444970    4.18674111793936    1.81809038687988
H         2.69533669804009    5.79254704424661    2.07487181699219
H         1.68085618709843    4.33935529642366    2.10729524404756
C         3.47781703422724    5.97371154413072    7.24145380475990
H         4.48944661867915    5.80198011637507    7.60822432444349
H         2.79884277576325    5.61942324858266    8.01531926150714
H         3.32560057494933    7.03812267394255    7.06880344018997
C         3.72874844475266    0.42534941470817    8.78676043891396
H         2.90356154523141    0.93916666400545    9.27857032375598
H         4.62891993199692    1.00365148694401    8.98961979237893
H         3.83273977682660   -0.57243985307990    9.20148204335444
C         2.85677754805578   -1.08358391780735    3.98513869694293
H         3.63090865281902   -0.91051714843655    3.23825077312278
H         1.90006610942194   -0.82847269435124    3.53127043523354
H         2.84776620383251   -2.14040786327982    4.23741275880764
C         3.37461036052911   -2.16578114723941    6.93649181904473
H         4.08092579502777   -2.26910959230127    7.76266843753406
H         3.72884349046545   -2.79987386850319    6.12130580550051
C         1.99218887928064   -2.64153150247857    7.38810971434587
H         2.03222980337492   -3.67852520238305    7.71434830413159
H         1.27953963743221   -2.56135646681385    6.57029213102081
H         1.63364872897215   -2.03049723822697    8.21308370451244
C         2.70543114079733    1.74722740504931    2.90276699277538
C         3.76736265246677    1.50750618839688    2.03854160263493
H         4.77965311658457    1.60411096306217    2.40473480513586
C         3.52850516026619    1.14934950091631    0.72356979923789
H         4.35897886521223    0.96466941449888    0.05780160071042
C         2.22899020965976    1.02702432420797    0.26113509971741
H         2.04396136386109    0.74675949514321   -0.76504897822015
C         1.16752226704001    1.26486397941153    1.11782089388154
H         0.15247751083378    1.17007707419640    0.76045247045465
C         1.40322632284960    1.62480961220272    2.43288604748353
H         0.57840727162062    1.81006467076379    3.10620716647122
C         6.14073617720667    8.85296450961894    4.63787513082510
H         7.20546386647502    8.64362125875157    4.50841738421222
H         5.94949525865615    9.87211508501901    4.29085740822579
C         5.72677087508936    8.72034481167390    6.09769583654048
H         6.23734424240318    9.45584693853954    6.71623513514674
H         5.95290336272037    7.72733325536347    6.48101633327399
H         4.65016004781529    8.88874109040991    6.18549990869058
C         6.03391564247721    6.10559773522208    3.70332213836431
H         6.01216108390721    5.83114365024308    4.76284301013232
H         5.42184864255217    5.36728694115351    3.17905404866098
C         7.46179160884796    6.06302607571365    3.17632038546356
H         7.90428696859417    5.09598262771338    3.40909115434962
H         8.08322168079667    6.83073427333820    3.63233213392222
H         7.48904428670096    6.19144087958639    2.09668470451289
C         5.54649183061156    8.35317761402158    1.90633929386869
H         5.25504217438119    9.40666311540660    1.88248065533136
H         6.62889955572420    8.29932046295605    1.76280730783575
C         4.80254919521463    7.59271810293628    0.81695180399126
H         5.05052554711793    7.99060890226479   -0.16513355949380
H         3.72748992201904    7.69756031016852    0.96160984419603
H         5.05078062592142    6.53286190917670    0.83421010880643
C        -0.33721057275645    8.23615967143156    3.48430207767725
H        -1.37838814852653    7.99211725685857    3.70960975565523
H        -0.26204325402609    9.31898161421226    3.35228294797230
C         0.13275354798298    7.53068559272005    2.21872587173601
H        -0.42814666135322    7.87104410231263    1.35046351510496
H         0.01853454173994    6.45176889337931    2.30540614514676
H         1.19037841394195    7.75333060748548    2.05177781649078
C         0.22596717109350    9.03729666488118    6.14689970395997
H         0.42012030717994   10.02027164730485    5.70913253952464
H        -0.85225416271714    8.94550830514159    6.30338475132044
C         0.98954163322788    8.90072399563680    7.45735098043717
H         0.65170292974975    9.64602991589359    8.17487687677046
H         2.05365338563332    9.05878176093242    7.28497059683583
H         0.85310777556899    7.91307964672831    7.89411434436408
C         0.01728026168109    6.19514174903743    5.51809887323164
H         0.08413630532778    5.49788252356958    4.67663296257957
H         0.68652173732336    5.81181567684062    6.29257302846570
C        -1.40854333411570    6.24572767837768    6.04985185728138
H        -1.74217751367080    5.23585562873262    6.28168725166889
H        -2.09804939018065    6.66680726817595    5.32084384671447
H        -1.46839928068365    6.83217306453754    6.96331340601289

