88
CSD_code = MELMAU | q = 0 | S = 0 | Stoichiometry = C31H48BF2IN2P2Pt | MND = 4
Pt       12.62689096599005    0.87237461570642    3.82550286365272
I        12.15903120508696   -1.70185503367680    3.38851821867988
P        10.41628850387916    1.12968258530077    4.41015415001040
P        14.84931115957313    0.57167915316827    3.32280945988568
B        12.71225151722548    6.22392849763136    2.36150349052892
F        11.40663183760562    6.28029174301223    1.88834201533791
F        13.58318950977232    6.14399823559079    1.28197940033055
N        12.88038251489619    4.99128597550706    3.26254053171660
N        13.02939285812625    7.46367536731248    3.21302365985654
C        13.27628224319424    3.67289657498236    5.06976047467451
C        12.91578251935321    2.86246603184529    4.00914918350630
C        12.68767395733590    3.71613653590814    2.90851711025859
C        12.99737266828027    8.73692868977361    2.79933532953297
C        13.35474260142426    9.57086074355981    3.86271099910000
H        13.41358958867518   10.64124219792102    3.81941821810028
C        13.61482460423833    8.77508346498464    4.96518986505255
C        13.51801639081663    6.22502493056339    5.23515945386024
C        13.40549630724748    7.43576438240690    4.54283297198904
C        13.25092831069865    5.02166349156688    4.59727345523648
C        13.62249573018007    3.19967935230675    6.43962426132122
H        14.62277329915141    3.51917520678723    6.73084142422384
H        13.57958832161002    2.11060254187313    6.45541919575939
H        12.92776465287827    3.58907533433564    7.18367537494926
C        12.31431010354853    3.30763417999646    1.53300469698854
H        12.32012587056600    2.21648990545951    1.46038500475765
H        13.01180353226747    3.73001002091725    0.81105800247793
H        11.32654793966363    3.69004973421755    1.27828932848426
C        12.62989545277133    9.11290325635105    1.41556439147678
H        12.66506683453115   10.19144598387060    1.29002487091149
H        11.62934339664240    8.74791657900444    1.18718142686237
H        13.31110042105995    8.63764560190418    0.71087283071059
C        14.02846335945525    9.26131322647141    6.30893484953610
H        13.31445916428868    8.95622846959390    7.07292128287771
H        14.08959516489428   10.34708308272294    6.30055450901026
H        15.00093066146797    8.85797387840274    6.58879498235940
C        13.92488739266050    6.22841593256224    6.65568920703513
C        15.26991652750538    6.15670122163044    6.99850022830617
H        16.01309578009752    6.10179638405326    6.21581718588010
C        15.65075229979380    6.15688895838647    8.32868437615784
H        16.69807715057012    6.10150463107734    8.58753118208157
C        14.69297887858868    6.22823190594206    9.32620655566995
H        14.99144646240880    6.22867479397256   10.36385786646370
C        13.35168654395518    6.29951723098046    8.98991826516705
H        12.60201493845192    6.35588144596799    9.76564496315627
C        12.96760648469388    6.29932050771377    7.66061285199157
H        11.92214852947812    6.35677205571208    7.39274669796999
C        16.07616034838862    1.93377694742705    3.56743718852998
H        15.85025952574381    2.38196470115038    4.53891529667975
H        17.07217242421383    1.48424935556698    3.62871224567996
C        16.05290789492139    3.01245320863836    2.49292520391245
H        16.75471451909392    3.80492672645763    2.74750489006386
H        15.06523389775318    3.45598688413196    2.40678315642229
H        16.33567089074536    2.61185933024255    1.52232670653905
C        15.57733718402231   -0.73957499818422    4.39458388227188
H        15.21605500565295   -1.70505551126239    4.03133393656771
H        16.66752688272440   -0.72374039495396    4.31791805475550
C        15.13380197861257   -0.53552717490931    5.83848119162682
H        15.44937407697463   -1.36827182878475    6.46374330189710
H        14.04266222506952   -0.47329895417662    5.87899544967612
H        15.54783987969655    0.38372902490275    6.24925848358105
C        15.17354480034928   -0.02889643316073    1.61109886381530
H        14.50687674516078   -0.88048829836957    1.44599590794898
H        14.85754035354118    0.76949103807749    0.93170184257148
C        16.61110856608348   -0.44050898749985    1.31790331255801
H        16.69653137617384   -0.74150960307684    0.27531900532838
H        16.90743269383108   -1.28504369693979    1.93502739566076
H        17.30643529960824    0.37780089107486    1.48956829602460
C         9.95328060649529    0.18490337729995    5.92077413253579
H         8.90626108852565    0.37936641331030    6.16709106870111
H        10.04864602165164   -0.87627604350589    5.67372852535687
C        10.87376752364164    0.52630502005191    7.08460448461784
H        10.65904810410387   -0.10263590222412    7.94635559082799
H        10.76605201801769    1.56809505917981    7.38027842660401
H        11.91129196170886    0.36080755642420    6.78961137889193
C         9.16545588412136    0.49148988806072    3.21944763828587
H         9.23360156385431   -0.59945349022141    3.23213567900752
H         8.16813964082433    0.77042686160601    3.56930910211317
C         9.41747582666160    1.00461035555399    1.80837127912399
H         8.68874241904333    0.58993532533536    1.11473460378080
H        10.41035526023954    0.70072258929747    1.47683263598282
H         9.35450426082410    2.09027068273016    1.76695285367374
C         9.86602025864004    2.85874029865877    4.75967585112581
H        10.57063857356195    3.25989375599334    5.49402869162226
H        10.02559515254243    3.42402220157499    3.83637750243762
C         8.43770663635014    3.05447514969466    5.24916028677292
H         8.26866007561531    2.55059877976224    6.19822835600732
H         7.71207103387795    2.68884272049436    4.52652030610505
H         8.25104536481889    4.11687756930321    5.39637133034860

