23
CSD_code = MELQOK | q = 0 | S = 0 | Stoichiometry = C10H8Br2N2Pt | MND = 4
Pt       -0.75258918896968    2.88597639153007    1.73326197842026
Br        0.42360116598929    1.18778974103526    2.90053074169813
N         0.16470724515133    4.43107093986943    2.66870479853362
C         1.08888001633622    4.35095401778419    3.62639017778729
C         1.64452287213403    5.46261304831379    4.22694909191554
C         1.22680695305821    6.72410845087629    3.82310166328515
C         0.27242338869339    6.81397779910861    2.82962580167353
C        -0.24858713358374    5.65225380047131    2.25916804256654
H         1.39577502094034    3.35756028569322    3.92384975059565
H         2.38813043861272    5.33733938199709    4.99640000354130
H         1.63555196076439    7.61547230681346    4.27243750472771
H        -0.06994917585527    7.78021166805112    2.49885842097383
Br       -1.92845876459125    1.18863033780166    0.56492741438049
N        -1.66948301257153    4.43101303021597    0.79718997677938
C        -2.59371075233051    4.35086804262344   -0.16044477442034
C        -3.14937459059763    5.46252500142468   -0.76101806349816
C        -2.73166690275829    6.72403810983307   -0.35720098222481
C        -1.77725849367520    6.81393198380455    0.63625043498766
C        -1.25621155275182    5.65222172317636    1.20671006629859
H        -2.90059284265987    3.35744707913094   -0.45785179252682
H        -3.89299968376457    5.33722418812075   -1.53044930577210
H        -3.14042243462710    7.61538593846244   -0.80656543835677
H        -1.43489453294345    7.78018673386231    0.96697448863433

