51
CSD_code = MELRIH | q = 0 | S = 0 | Stoichiometry = C24H20Cl2NOPPdS | MND = 4
Pd        5.76204549226304   11.07864555111268    2.06175461864298
Cl        5.16502667307451   13.23527295582241    2.15151711139130
Cl        3.66865455151627   10.50260265677439    2.54417678414213
S         6.36179732848897    8.86273751833747    2.11123874324713
O         7.53020512421913    5.99477027936246    2.40056585531551
P         6.26922215200213    6.07342573435798    3.15450845998040
N         7.77081557829401   11.47426828177218    1.68372287436632
C         6.29223479050011    7.42414806292175    4.39385719923123
C         6.39128038803974    8.71654376451735    3.89330186474735
C         6.46936009635347    9.81008736332383    4.74377472914474
H         6.51701429585706   10.83515106368662    4.34716435712350
C         6.46297979680735    9.59530030176845    6.11333887604305
H         6.51552649456929   10.43918115206990    6.78393025495900
C         6.37911158994831    8.30806491327193    6.62097955999006
H         6.37153143569541    8.15058468056598    7.68900014340687
C         6.29513954124274    7.22203867231311    5.76569159072601
H         6.22338806605049    6.21789027340984    6.15800342582806
C         8.64390959126091   10.45857266090123    1.69708149150677
C        10.01391806299995   10.68025613620508    1.59555022198201
H        10.68778252945260    9.83796884303543    1.61737952513701
C        10.49088718057465   11.97183354683993    1.46091876717276
H        11.55057142201718   12.15890198214865    1.38046316403526
C         9.57497335588958   13.01258772707114    1.42778172712813
H         9.89369949473929   14.03576938986827    1.31553245982079
C         8.22905008430596   12.72104435970606    1.54640377349234
H         7.47095895545909   13.49774013107869    1.54542174168470
C         8.15031417337004    9.04543993256651    1.77498863717665
H         8.68611289408819    8.46489956792968    2.52657338277696
H         8.29622555961275    8.55165087863439    0.81030512954679
C         4.76924978636098    6.33254791030269    2.16098392684936
C         4.77431371279865    5.80807927075221    0.87617529289174
H         5.65399112328898    5.28270927207043    0.53052495870505
C         3.67265464287706    5.98144367029090    0.05864639619290
H         3.67499410806818    5.57950405699821   -0.94404943475156
C         2.57171669131846    6.68193218701179    0.52539698276616
H         1.71686638928790    6.83077359978850   -0.11730986348779
C         2.56704767143471    7.20284578843079    1.80934961538424
H         1.71827090245339    7.76516245429543    2.16590735923565
C         3.66276585703954    7.02581776706724    2.63372906800297
H         3.66675067131533    7.45338855935797    3.62632632702761
C         5.93206015248899    4.57460615815735    4.12570259829849
C         4.71050259572838    4.36316043903618    4.75411778957804
H         3.92982954850243    5.10598669747738    4.67410060562273
C         4.50467790019614    3.20100765979989    5.47387406556750
H         3.55747561343517    3.03258806621552    5.96491695716434
C         5.51058601344870    2.25039724591096    5.56377477269956
H         5.34386436795287    1.34390944224182    6.12678038754623
C         6.72476775731328    2.45731739842156    4.93013119427624
H         7.50478824780569    1.71328090695669    4.99731109239862
C         6.93484711859549    3.61959424813361    4.20927356845608
H         7.86974242960585    3.80426881991789    3.70010986983000

