88
CSD_code = MELYIL | q = 0 | S = 0 | Stoichiometry = C42H38AgBN4P2 | MND = 4
Ag        9.38004169804451    6.97894549219303    4.59481108187993
B         8.32424390782194    8.35099432159243    2.13075566138212
N         7.26304850902739    7.31177679404737    2.54769817965431
N         7.55798083769284    6.30292296734153    3.36933405615442
C         6.43923384717344    5.61042386913403    3.56141987356059
C         5.39250037493332    6.18224130489014    2.84687779726473
C         5.97102008827327    7.26744495741586    2.21672973712964
N         8.32269818730184    9.45132571747387    3.21225126649812
N         8.99650590260686    9.29784327748492    4.35216544285410
C         8.77356100413169   10.38050868750530    5.09299329323720
C         7.93431911217189   11.25941105620786    4.41443132390961
C         7.67405587332324   10.61751763861667    3.21739331630127
P        11.59312902358512    6.15536268021834    5.32918283064062
C        11.65639996512065    4.81564600024440    6.55794247734808
C        11.29446171492959    5.09132158417815    7.87561578823820
C        11.25566244702101    4.07911125636012    8.81405809913964
C        11.55179437747475    2.77719500737848    8.44325422011351
C        11.87785706058323    2.49098517567266    7.12800304372129
C        11.92564038117842    3.50234263914496    6.18585888824039
C        12.80799865653671    5.61988537162621    4.07747967540733
C        12.42134988325690    5.65397548338695    2.74290667191330
C        13.31243710258661    5.28404636520825    1.75095466752290
C        14.59270982460817    4.87941408185456    2.08934455938911
C        14.98272824673160    4.84605456498488    3.41980269679441
C        14.09727148196446    5.21695394890097    4.41373139168977
C        12.55200262091196    7.47854967247369    6.14655331572512
C        12.30778385408897    8.77658580341280    5.70630129925376
C        12.99891640926450    9.84122132599466    6.25424651451924
C        13.93915352367118    9.61706365055246    7.24702225759752
C        14.18565997563113    8.32694327243431    7.68801926928650
C        13.49835991428770    7.25765189037400    7.14179416478638
P         7.95779609154313    6.97011881366796    6.80438262874741
C         6.18223015311162    7.15876343942612    6.45464800268635
C         5.78989519473415    8.36223719984610    5.87167922568845
C         4.48138795509311    8.55038278077195    5.47517375785718
C         3.55175585429167    7.53738239574354    5.65288247262247
C         3.93654765119330    6.34041442052234    6.23180966657448
C         5.24796352461940    6.14482536063809    6.62819421241671
C         8.19978083264209    8.19639667140667    8.13303361468989
C         9.48896437689807    8.69216580531643    8.30156927560911
C         9.75825950118725    9.62504556730137    9.28529591648655
C         8.73545047595627   10.07783457476818   10.10329067515314
C         7.44676746783741    9.59779482775122    9.93187647261943
C         7.17487027041759    8.66050981779498    8.95120274865083
C         7.99277865188818    5.38890961706441    7.71415915265387
C         8.24049729636714    4.25105403038490    6.95062155529991
C         8.26975791672879    3.00378504648119    7.54302552617390
C         8.06666100849165    2.88558577580252    8.90875655208037
C         7.83711189329152    4.01592052679349    9.67555026436276
C         7.79846293788737    5.26657613675834    9.08441188092918
H         9.40558675279634    7.80879477296810    2.16561524055939
H         8.03775224583720    8.82161692040657    1.07848071209719
H         6.43062682932610    4.73375341091961    4.18250761136389
H         4.37344897710533    5.85551847471141    2.79695963202561
H         5.54031770183727    7.99484328922081    1.55788313690303
H         9.22292224522323   10.48619786538597    6.06383040787258
H         7.57553106011540   12.21430094325307    4.74307208947667
H         7.07527903736605   10.92575155248431    2.38370191173164
H        11.04838188786183    6.10535884129187    8.16219810665825
H        10.98699669872455    4.30418640062495    9.83570603102532
H        11.52131564557580    1.98618922635292    9.17769750048482
H        12.09688894425816    1.47452763920474    6.83445130849886
H        12.17612450547785    3.27695283926144    5.15811954699294
H        11.41532196163499    5.97283912416212    2.49124312576065
H        13.00792587227750    5.31221377691563    0.71530560639360
H        15.29021475015200    4.59006394196938    1.31715404968494
H        15.98256258757861    4.53106203383544    3.68131656363891
H        14.40211768948907    5.19102334486987    5.45016046798947
H        11.55594724288575    8.94117549689807    4.94146483784070
H        12.79952935593412   10.84578469723863    5.91158540117188
H        14.47758101491247   10.44685641214116    7.68106316761182
H        14.91690434281247    8.15192407029243    8.46408515304238
H        13.68699299317636    6.25680471344305    7.50451389430715
H         6.52306279057991    9.14484832277473    5.72917294110485
H         4.18679113521406    9.48359261294618    5.01780416138224
H         2.52932532089590    7.68026893153792    5.33525147896732
H         3.21324059391839    5.54935425954261    6.36920430046909
H         5.54501957499420    5.20292117246617    7.06836838968117
H        10.27517266496746    8.35255256896396    7.63763050407708
H        10.76251516638039   10.00527306983617    9.40700969218210
H         8.94001637288635   10.81139456573147   10.86928041631506
H         6.64871495049406    9.95747497732547   10.56542099640854
H         6.16703656699879    8.29291204318459    8.81359360256455
H         8.41465710097772    4.36213046678283    5.88530231358812
H         8.45809944378778    2.12441486993694    6.94479898610111
H         8.09231007720090    1.91238286988944    9.37649841842373
H         7.68410816183795    3.92270159988120   10.74131625989167
H         7.61959487645291    6.14606921492459    9.68673557322373

