47
CSD_code = MELYAE | q = 0 | S = 0 | Stoichiometry = C20H18N2O6Zn | MND = 6
C         5.77308401868583   10.69186011118816    5.09550362180181
C         6.15638400021666   10.88118795940193    6.60110878353672
H         5.56973509550023   10.15683930525816    7.17857256227595
H         7.22509628048146   10.67569608244612    6.72521737222140
C         5.91921736713398   12.57447810398009    8.26289523613316
C         6.37435066086665   11.72778494441339    9.27439518008772
H         6.64042331020652   10.70862316179605    9.04722778884848
C         6.48122160664595   12.17060851725102   10.57772469782736
H         6.82497775909992   11.48907394840302   11.34099760751389
C         6.15759063164292   13.47893125898196   10.90857262034909
H         6.24863367159612   13.82310631630544   11.92665544427480
C         5.71304625671266   14.32855530967183    9.92210336561957
H         5.44813164948117   15.34603155852229   10.17079176731868
C         5.56871125076213   13.90470318108426    8.59336502626943
C         5.03677654870863   14.85759984477187    7.65913128214093
H         4.95068644002781   15.87539673956826    8.05907855485199
C         4.08641965060328   15.71017158437520    5.69551868657768
H         4.60229432289379   16.65947264671650    5.88427701822781
H         3.03063626403158   15.82243864151672    5.96921870092506
C         4.17175241402799   15.33152027847655    4.21937341815689
H         3.70851044512374   16.10260973305655    3.59171285469398
H         5.22823867432439   15.23832822600972    3.94156739836743
C         3.12610205439941   13.71004335854893    2.89251527333222
H         3.24290289201510   14.41708272565920    2.06196771716020
C         2.52601234745779   12.46029549815924    2.51552629810843
C         2.34565872668379   12.22993670308729    1.14412427976423
H         2.63604344055478   13.00387978665326    0.44847931066682
C         1.83297032022888   11.04459836817066    0.67011449319562
H         1.71347783001387   10.88538929606601   -0.38988073004600
C         1.47753635786329   10.05328147530912    1.57389241490148
H         1.08069113716428    9.11443373856729    1.21844911492132
C         1.62008259755100   10.25624402069666    2.93203850393075
H         1.32885411272377    9.47032281970921    3.60917729811178
C         2.14180615468490   11.45118773392196    3.42968573792047
C         1.90167183859738   10.72844180257728    5.68853249674748
H         2.44792822172853    9.79438246254866    5.51135622916388
H         0.82356382963815   10.53483099883540    5.67845044276408
C         2.31048423315953   11.24379564461847    7.10878603506752
N         4.64721432051955   14.63171230908544    6.46699273853895
N         3.54145206911393   14.04860237156576    4.04859022869119
O         5.84213244832391   12.21002469038038    6.97305647696641
O         6.19688016182547    9.71301824969977    4.52103239314528
O         5.02429624715218   11.59359127276219    4.60983432619535
O         2.25460851823085   11.71811762555268    4.74040671072020
O         1.88510494762711   10.64570200679601    8.07286243877700
O         3.07726286537939   12.25418403595491    7.11808754997414
Zn        4.06554400858833   12.85248355187986    5.63011323326162

