84
CSD_code = MELYUX | q = 0 | S = 0 | Stoichiometry = C28H49AgBN4P | MND = 3
Ag        7.31214327669524    4.85772990269014    3.25115765036641
B        10.02766798665617    5.72771236500923    3.67121663159769
N        10.17310693205195    4.76062003422502    2.47428912376008
N         9.08677917069161    4.11270962109867    2.02663728308478
C         9.44160924349457    3.40175147076844    0.95966149046676
C         8.46035016437777    2.56253012635046    0.21814509741070
C        10.80109265652314    3.58824027985799    0.71516067830977
C        11.22852311513879    4.46410832128480    1.70235899743032
C        12.59638749739135    5.01041911096302    1.90528531770541
N         9.38966828645689    7.02343362170303    3.12493755603986
N         8.08143680388594    7.02482664467544    2.83073232838591
C         7.77450244498179    8.21587375258789    2.32620564201184
C         6.38708366330852    8.54462356858511    1.89681576759097
C         8.91868167785351    9.01331099168265    2.30031874952493
C         9.92691645437214    8.21326284051977    2.81684696361535
C        11.35847240433712    8.55995751047375    3.02062373223594
P         5.14541100472481    4.23325820739364    4.19537799596661
C         5.15277449504636    3.48303048046963    5.90840481265118
C         6.52481087972412    2.85637526316777    6.17128585882061
C         6.64557699031562    2.42965374077369    7.63083217277669
C         5.53170880699349    1.45141988527374    7.99399801573245
C         4.16573634688982    2.07115823046827    7.71493909188810
C         4.05017606929788    2.47986408720467    6.24660225860866
C         4.03532258456014    5.71810486169664    4.38426941695378
C         4.79546126678093    6.81228625495000    5.13636492594650
C         3.99460969364990    8.11067582543410    5.12358712146186
C         2.61681584138190    7.89305840434049    5.74335934754489
C         1.86648429558135    6.78988441152994    5.00265401717843
C         2.66742258036804    5.48827374440446    5.02192425786418
C         4.16768161546319    3.05762180921203    3.12914393571110
C         3.82872497369998    3.74641887674583    1.80680678679151
C         3.18416287495542    2.77592602495468    0.82047528092185
C         4.09083792548608    1.57812944574518    0.56419000586848
C         4.39799332673372    0.87144490569988    1.87906716989487
C         5.05117306010477    1.83707343398360    2.86233495414434
H         8.54401723175595    2.73352779587313   -0.85366905395417
H         8.63591465974918    1.50355599539085    0.40930347099596
H         7.45172542689091    2.81714177954585    0.54219538533117
H        11.39215887731170    3.14930991931198   -0.06389920386982
H        12.81901013232479    5.09870273118831    2.96503282565168
H        12.68246770961441    5.99957315626008    1.45553708128633
H        13.32733530196939    4.35684289927845    1.43478188625187
H         5.95425635590576    9.30553475258204    2.54685710440525
H         5.77410163983436    7.64454186022808    1.94292437546079
H         6.38245951356684    8.92648894520680    0.87689902745002
H         9.00312721637401   10.02612169212120    1.95943158974109
H        11.69350477509215    8.23314098357745    4.00222826304152
H        11.49117239099109    9.63588087015256    2.93439460053504
H        11.98238018769314    8.07241536109570    2.27245266240815
H         9.21427781332151    5.22311896498413    4.44154052140197
H        11.07224797536973    5.94303995256713    4.18486315794189
H         5.05249058895739    4.34518941169925    6.58227098787905
H         7.31105785944093    3.58044421104434    5.92634026334185
H         6.66562338226401    1.98608621265302    5.52598885267119
H         6.57816410555564    3.31095116644540    8.27340116044262
H         7.61910564071642    1.96673403412560    7.80130888253143
H         5.60638537269355    1.17583416995413    9.04775750346753
H         5.64233514035188    0.53985981531035    7.40196465395094
H         4.02977380739153    2.95003924832029    8.35003787168340
H         3.37562010646254    1.35785972792102    7.95981595144022
H         4.15076191992511    1.58651243323966    5.62835864347433
H         3.06296198935512    2.90689941953920    6.06420339650513
H         3.88794147405306    6.07765098703254    3.35675132928579
H         5.77432209786376    6.96745854998429    4.66842611328865
H         4.96373995712971    6.50929330932412    6.17267348628394
H         3.87730015613984    8.45355756448630    4.09326102386153
H         4.53426396800613    8.88339160801741    5.67411146985114
H         2.04134964655387    8.82020625000685    5.70922620827198
H         2.73163052150050    7.61061669889455    6.79262051553472
H         1.69842433732264    7.09791073882042    3.96778612568887
H         0.89041865907011    6.62721043661178    5.46519972227465
H         2.79042438968813    5.16854196405170    6.05830552534859
H         2.11693827442272    4.71255441054454    4.48451458311136
H         3.24547908964199    2.74995982825589    3.63416416392735
H         4.75315585844232    4.15117659414300    1.37532915005804
H         3.14384876945268    4.57913369928642    1.97780562927864
H         2.97457497255894    3.29488234827406   -0.11710817971837
H         2.23176946738195    2.42739865831039    1.22891947954514
H         5.02277482699735    1.91772088729729    0.10739564499733
H         3.60900477786927    0.88688918056087   -0.13001932663547
H         5.06255755915328    0.02332590133136    1.70272806032988
H         3.46966558543770    0.48541548167913    2.30882735519113
H         5.26647135886632    1.31338600134471    3.79556171717208
H         6.00810072161239    2.18390333618268    2.45348790532020

