57
CSD_code = MELZIN | q = 1 | S = 0 | Stoichiometry = C16H30CoN10(1+) | MND = 6
Co        2.41947416002565   11.61662801280821    2.22923368901878
N         3.92251643397461   12.50319271195147    3.06775386855730
N         2.14011817587411   13.15989235476878    1.33896896949559
N         0.92060813076188   10.72878023858069    1.38854498310885
N         2.69959244988665   10.07138597553166    3.11824341738697
N         3.56681133711437   11.03641895472123    0.85213401307040
N         3.36204703734888   10.24075982525469    0.01379405252880
N         3.25527851383421    9.50374377651329   -0.83944425319269
N         1.27148845836246   12.19865803724649    3.60341009547232
N         1.49974927737060   12.93694200350523    4.48672909693880
N         1.62888653825712   13.62291121594549    5.37853048166812
C         4.56494317927321   12.16798702390585    4.11875425227949
C         4.16803491053644   10.94282634853071    4.86778484092622
H         3.29745214261242   11.19034395084026    5.48413606713440
H         4.97042835731114   10.65161705016777    5.54407959226747
C         3.81441148704766    9.72882175148780    3.97890131877060
C         1.82808947030199    8.98673281461581    2.75517921960123
H         1.56902513462407    8.36613887111410    3.61642833994628
H         2.33106594759247    8.34174678303495    2.01631612819614
C         0.55024060021461    9.55997559543945    2.15575672093601
H         0.04155592046820    8.80604217994077    1.55217623954256
H        -0.11592762121793    9.89032952132372    2.95997918912561
C         0.29625621013180   11.05254205946948    0.32331246654446
C         0.70657973867434   12.27178310974711   -0.42797531943854
H        -0.08028667002259   12.55482606910078   -1.12554120024252
H         1.59331394793780   12.02358358823103   -1.02038089052002
C         1.03604162044071   13.49255808440838    0.46129808480586
C         2.99589162384832   14.25001230043994    1.72053376234435
H         2.48357975095822   14.87289980952356    2.47214773275837
H         3.24645706908691   14.89082565738249    0.87195731560566
C         4.28057224302535   13.68257601340782    2.31032404740859
H         4.94723229862638   13.36660079386295    1.50070567780785
H         4.78404222706804   14.43497908375733    2.92028341133921
C         5.70709359000135   12.96059780222617    4.66280699113847
H         6.49158372098173   13.06552340552989    3.91414164598538
H         6.12723158896761   12.48839733486989    5.54467427885633
H         5.37487669281847   13.96101681221863    4.94206057227766
C         3.53151836354655    8.56112753457763    4.93856587840431
H         2.63407285859329    8.74186113785424    5.52580536940849
H         4.36617965265050    8.46137400315770    5.62710637951866
H         3.43821145041414    7.61795986325558    4.40838950789822
C         5.03817888233681    9.35588300254237    3.11544507744272
H         4.82560259498101    8.46230949765455    2.53451586165749
H         5.89246302361067    9.15499166338828    3.75555704827149
H         5.28957350742858   10.15877140629006    2.42818679896988
C        -0.83642949016388   10.25505342984876   -0.23308683475922
H        -0.50065960292024    9.25075195480371   -0.49346696931923
H        -1.23821244507885   10.71724108583157   -1.12870051669671
H        -1.63582041356166   10.16084194377076    0.50105392061184
C         1.32527306504330   14.65850268574526   -0.49865300237790
H         1.40153395268633   15.60483322947969    0.02875196869616
H         0.50131320993328   14.74854432484836   -1.20136209436051
H         2.23408714445722   14.48264873401522   -1.06974990814533
C        -0.20238437172614   13.85967528609088    1.30599832317442
H        -0.44494320676603   13.06598323659945    2.00695557918771
H        -1.05429802051230   14.03264135461115    0.65464277380116
H        -0.01091584907101   14.76790770423146    1.87120593916618

