69
CSD_code = MEMBIP | q = 0 | S = 0 | Stoichiometry = C22H40Cl2N2P2Pt | MND = 4
Pt       -0.00014009805528   -0.00015045655830    0.00009617750223
Cl        1.90897004385514   -0.11625075394143    1.34633611468882
P        -1.27180364442124    0.54983616241530    1.84907444007701
N         0.42488445236043    2.49771553151721    2.91259062861548
C        -0.45503964489271    1.47786452654495    3.15322056238368
C        -0.56122910841929    1.33365916214321    4.52665127871986
H        -1.16481850215944    0.61911026001975    5.05065057681441
C         0.27348465460226    2.29026699901955    5.11575817797135
H         0.42432257982047    2.44756055339386    6.16543517111758
C         0.86548938214386    2.98603174676896    4.09276477862426
H         1.56965540152855    3.79467945674574    4.12737134153184
C         0.85621277484519    2.99401476751676    1.63679142658913
H         1.94599758917567    2.96822021754189    1.57988295293178
H         0.51805373838672    4.02233139689184    1.48412234659042
H         0.45094188317473    2.36136055433297    0.83992160131210
C        -2.85458066265297    1.49548876609437    1.57178244992426
H        -3.43488205137651    0.90157910871429    0.85868003620884
C        -3.64551252375751    1.69478803642005    2.85855437754735
H        -4.51790247790334    2.31491786220323    2.65807875160290
H        -3.03607102483884    2.19580193268627    3.60946715373946
H        -3.99349048160053    0.75017282377237    3.26897269781515
C        -2.53029595683497    2.83673405522629    0.92073566425784
H        -3.44952943024765    3.35568157111243    0.65460270446854
H        -1.95536181432880    2.68344158828554    0.00819358772184
H        -1.96628290008991    3.47039517490549    1.60294252386543
C        -1.81685531003353   -1.00404305829188    2.69904033679681
H        -2.26951859843425   -0.74787856023129    3.66209667504403
C        -0.58365806742995   -1.87113829576133    2.93255755067179
H        -0.84881912700928   -2.78476150544462    3.46244296153181
H         0.16389121607485   -1.33336740285481    3.51301691712569
H        -0.13584930094650   -2.14368697390934    1.97472715928022
C        -2.83182985844272   -1.73299313409997    1.82061853528894
H        -2.96871717261003   -2.75451591073443    2.17201070492242
H        -2.47810965971265   -1.76661546428394    0.78978578391091
H        -3.79989411657256   -1.23758865493537    1.83142325703474
Cl       -1.90899710679419    0.11612790180355   -1.34642522141882
P         1.27180157435247   -0.54984313436809   -1.84890530124624
C         0.45499553230465   -1.47785916627051   -3.15305927299347
N        -0.42492138922363   -2.49774033182754   -2.91251233364955
C        -0.86547309981342   -2.98603138932365   -4.09272295885966
C        -0.27344584450202   -2.29022284888987   -5.11567011157588
C         0.56123394503477   -1.33362718949274   -4.52649767703615
H         1.16484130005418   -0.61906437378159   -5.05045074996126
H        -0.42422740158451   -2.44748291584319   -6.16536195384222
H        -1.56961158782668   -3.79470146422993   -4.12739035784144
C        -0.85629914398951   -2.99415401245741   -1.63676724451583
H        -1.94607459224917   -2.96830226539397   -1.57989016717446
H        -0.51819956691403   -4.02250228052053   -1.48423160691014
H        -0.45101210777260   -2.36162518281107   -0.83983430572277
C         2.85463282653421   -1.49545037148678   -1.57184308122970
H         3.43494517813975   -0.90153587700514   -0.85875762125568
C         3.64549727674166   -1.69468066573061   -2.85866799011404
H         4.51796126993542   -2.31472897022947   -2.65825979584307
H         3.03604180995917   -2.19574258875152   -3.60953712615933
H         3.99335645740688   -0.75003089688797   -3.26910795057570
C         2.53042108285608   -2.83671989353541   -0.92080939340502
H         3.44967973147145   -3.35568416231435   -0.65480356251387
H         1.95559411283673   -2.68344950170308   -0.00819403158917
H         1.96631852831486   -3.47034791251761   -1.60297354396811
C         1.81678421275610    1.00401917780905   -2.69897929747549
H         2.26942417200058    0.74778198392136   -3.66203287021186
C         0.58365214659749    1.87119531454711   -2.93255040950503
H         0.84894037613610    2.78474073977361   -3.46251066357335
H        -0.16393328764714    1.33346393407502   -3.51299699451229
H         0.13584156169080    2.14389067889119   -1.97476830471965
C         2.83180730611424    1.73296719802503   -1.82060915408153
H         2.96861241463271    2.75449699774543   -2.17200950525296
H         2.47820932406715    1.76657533175889   -0.78973339352738
H         3.79989080518933    1.23760605380230   -1.83153345197578

