51
CSD_code = MEMCRP | q = 0 | S = 0 | Stoichiometry = C25H21CrO3P | MND = 8
Cr        5.67019590864607    0.81382851407114    6.96162534128268
C         6.15865355018756    2.38139197580717    8.05917026180052
C        10.12568971194739   -1.61724727202494    9.34054755887298
C        10.65785115781128   -0.50012293262394    9.96185781475814
C         9.84331079633760    0.58336902455418   10.25679257127842
C         8.50066011996672    0.54718446171168    9.93332457219095
C         5.41341067689768   -0.17948673365389   10.42677452172868
C         6.00949999481403   -0.55994077469193   11.62794839230488
C         5.36795657168217   -0.31697673624955   12.82872733194186
C         4.13176973333408    0.30767091576117   12.84400830924290
C         3.53747296589709    0.69137212395361   11.65335210083836
C         4.17425045113638    0.45025883598996   10.44922943949501
C         4.14566807275738    1.80053311556860    7.08078182488522
C         5.81258726561047   -2.26325161200635    8.52535428570446
C         5.64135483884532   -3.19601124025796    9.54220261116794
C         5.34904994443819   -4.51210898504395    9.23016212214331
C         5.22929065178253   -4.90652884289473    7.90770234388740
C         5.39607746540049   -3.98057449737024    6.89022780890416
C         5.68285474081477   -2.66372637788807    7.19863147523727
C         3.96588393528190    0.19141242832736    7.13603680221553
C         7.17048334940794    1.87312355134646    5.97404385643905
C         7.14809405559958    2.94101332393045    7.03632529572068
C         6.12399745651316    1.85823784233492    5.05206405892862
C         7.78347059272196    0.66769699952848    6.34083897025474
C         7.95843562744947   -0.58094573865617    9.31854300188538
C         8.78089680451471   -1.65884635334168    9.01297337928635
H        10.76047870750912   -2.45966986096973    9.10737201883716
H        11.70747992214803   -0.47087357798731   10.21411933630297
H        10.25893334022931    1.45692353810173   10.73737959955013
H         7.85653563392432    1.38708390830048   10.15723341182572
H         6.98165722048108   -1.03466848450294   11.62656432181760
H         5.83748061230072   -0.61287280428941   13.75581574140287
H         3.63676250580684    0.50062528014588   13.78421488929077
H         2.57831851966573    1.18629875583805   11.66160026016699
H         3.71801920443381    0.76372138806943    9.52151570384898
H         5.72581077983864   -2.89043230143638   10.57503404597750
H         5.21076996283052   -5.23282337376673   10.02265454815049
H         4.99885658506012   -5.93423184831077    7.66967150297111
H         5.29516870647171   -4.28628051635804    5.85937172208462
H         5.79830759488039   -1.92265242539541    6.41003435652568
H         6.77032584763090    3.89591642109466    6.65896558237034
H         8.12272706377953    3.09987674560810    7.50724729081757
H         6.17058847498230    1.15038862644129    4.22638292966084
H         5.63857947055253    2.79299052049033    4.79822876054335
H         8.62412034908130    0.71196504725817    7.02763622953342
H         7.91201470818076   -0.08934298560850    5.56394488706727
H         8.36762737687352   -2.52907033207012    8.52199007153702
O         5.90756432756936    2.82524731936000    9.14310737858066
O         3.31497949112095    2.62992048687960    7.14371763583608
O         2.90781371275228   -0.34268037160875    7.19383272442443
P         6.20811344211397   -0.50368417146925    8.81821899848136

