53
CSD_code = MEMDOX | q = 0 | S = 0 | Stoichiometry = C12H24ClCuN12S3 | MND = 4
Cu        7.24904682933644    4.18540946796143    3.43173009727328
Cl        7.24913564168712    4.18544492383146    0.97675081115400
S         7.09970763524529    1.94203230944136    4.12119992558439
N         9.75966608151855    0.94193216829339    1.50618720870848
N         8.80300074942155    1.76803454457642    1.97513266939266
H         8.48648340188531    2.60055492903118    1.46128551085324
N         8.97962663456022    0.16857964582543    3.39707325415698
N         8.85404910977861   -0.60928331860526    4.53579383785028
C         8.29257854738449    1.32513974109706    3.13297943787550
C         9.87212882051156   -0.01603058696369    2.37088411612562
C        10.79197932459693   -1.17654821963474    2.30989996582116
H        10.20985080613481   -2.07097500896441    2.06618383638382
H        11.21444017005024   -1.32556675850846    3.30713252288657
C        11.88790234350495   -0.96976085420178    1.27279911161601
H        12.53706348885304   -1.84025600121916    1.23477531427230
H        12.48272498549511   -0.09635332875664    1.52300173074788
H        11.44818168623987   -0.80908363692692    0.29322685644856
H         8.20923119513414   -1.38271183232805    4.36968994886971
H         8.44522420192725   -0.01594217342297    5.26072785784403
S         9.26643223771980    5.17780276346174    4.12139985388902
C         9.20425846370540    6.51927229462085    3.13312985305057
N         8.56554000707782    6.73980022449187    1.97524666217051
N         8.80260431546675    7.98133553212591    1.50627000066258
C         9.57590651148549    8.55778560998160    2.37099508444855
N         9.86226718711381    7.69259734213556    3.39723025654874
N        10.59859661822395    7.97285439665999    4.53600133890077
H        11.59083062111747    7.80113761205032    4.37000226313477
H        10.28910002620999    7.32217266232545    5.26094760025617
C        10.12089722322831    9.93470417787410    2.30997344849654
H        11.18654053188667    9.87788216480317    2.06616580735510
H        10.03875588698664   10.37507612024875    3.30720824421493
C         9.39368383189194   10.78032388353310    1.27291940637311
H         9.82277636757829   11.77784884592921    1.23493211424680
H         8.33986888136088   10.85852682416960    1.52314466566089
H         9.47446576769266   10.31923465132644    0.29332551245234
H         8.00286109668762    6.04940046469465    1.46137799574589
S         5.38081940431960    5.43634041472806    4.12121336944734
C         4.25023385745628    4.71157869895187    3.13299766250767
N         4.37869291754570    4.04808813493164    1.97516515617694
N         3.18500150023919    3.63246317737743    1.50621250864544
C         2.29908299070360    4.01392139522770    2.37089842931529
N         2.90509763563699    4.69465790723464    3.39708309724232
N         2.29414788927182    5.19226202899675    4.53579158355095
H         1.94673537378848    6.13740531450946    4.36971624981779
H         3.01235349230362    5.24962973017538    5.26078129872879
C         0.83416257285586    3.79729418799934    2.30988355125183
H         0.35047882132318    4.74846072806219    2.06574968524270
H         0.49384613823214    3.50626008693037    3.30719777833658
C         0.46557662703206    2.74434103117335    1.27314321701918
H        -0.61284118626216    2.61710549198642    1.23513275066729
H         0.92480095251865    1.79271491638126    1.52369962512587
H         0.82454134644512    3.04455899818169    0.29347617100606
H         5.25796243788547    3.90604617619433    1.46133374445061

