58
CSD_code = MEMGOB | q = 0 | S = 0 | Stoichiometry = C15H31B11Ru | MND = 12
Ru        6.64647481594768    0.94055975311528   17.33909206111751
C         5.08662395651539    1.78232796514997   15.90813604699238
B         6.63580731127404    2.54093137970830   15.79100128673317
H         6.63361528796623    3.66637528250909   16.16096150115768
B         8.03731168019258    1.58339848294409   15.62535367756321
H         9.05268408085030    2.11095689461620   15.93003464068750
B         7.96789354238286   -0.15675245800197   15.75641007636377
H         8.91374504029898   -0.68003738279285   16.23641322069842
B         6.36327723560156   -0.90392719652897   16.00594880412067
H         6.27893899803967   -1.90267072304987   16.63691054086938
B         4.95600187595740    0.15567661974872   16.07518033839798
H         3.98660787616715   -0.17282963723692   16.67494746098958
C         5.53285821222996    2.32210065931480   14.50539050928072
B         7.10138768717190    2.11256204846773   14.10298024096613
H         7.51899525212916    2.95749824697014   13.39259962903825
B         7.97252857703718    0.58036850011283   14.12451792234879
H         8.93464189376216    0.56828956259275   13.44318061092106
B         7.12962688149520   -0.93306896958824   14.42392209673461
H         7.53016898594151   -1.92858088841829   13.94058924206660
B         5.40241169461352   -0.67558355657733   14.51515181705925
H         4.68219200618309   -1.52020641479042   14.11625548357874
B         4.72603812723498    0.90823916267669   14.40473866098296
H         3.63073381605274    1.01361138874497   13.98618564399226
B         6.35245002591730    0.41367975732734   13.46963686152629
H         6.15575161797388    0.45504720134457   12.31103906645652
C         7.91721323091380    1.94010511121425   18.95744836448148
C         8.14169507541787    0.53931937505858   18.90171706529551
H         9.16031131033822    0.17036559964369   18.85112439011985
C         7.07956039578038   -0.37852737748916   19.06357541985467
H         7.29175672784234   -1.43953410419027   19.12747701895035
C         5.75494625350056    0.08006701992121   19.24180344153096
C         5.52140708629676    1.47312838894149   19.22431428092958
H         4.51863885252676    1.84486616484521   19.41050559668560
C         6.58869991449873    2.38985976567291   19.09684287214364
H         6.38258697508811    3.44975691091270   19.18623776138775
C         4.65224209455069   -0.89296523319514   19.53817281688821
H         4.72420849690134   -1.76289439878556   18.88825956208496
H         3.67521473480766   -0.43539741252436   19.39982322001872
H         4.72672914604880   -1.23396578958704   20.57253927216398
C         9.11379765471376    2.85989396246535   19.04221874772834
H         9.92028575363618    2.41498761751491   18.44879647764284
C         8.86525059154713    4.27102282057361   18.51469817456686
H         9.80016714464595    4.82644358616913   18.50904652976469
H         8.16186718259500    4.81131154297178   19.14485475681299
H         8.48181647359552    4.23331897480864   17.49920296817100
C         9.56654430470269    2.91488592363365   20.50829453755948
H        10.45515103280206    3.53410590096578   20.60456187838620
H         9.79737616142709    1.91879386993118   20.88005349686300
H         8.78110586307251    3.33998148190092   21.13111684827137
C         3.98756347434944    2.72486712966396   16.38751017112432
H         3.14449901621344    2.18075167896894   16.81932599293548
H         4.37529113297666    3.40021476802515   17.15570390414173
C         3.53517267850845    3.54429402608038   15.16384681955707
H         3.23653693308282    4.55400550578730   15.44778590273208
H         2.67105702593954    3.06429863909968   14.70376725647986
C         4.71252843705368    3.55586245622499   14.17451770656529
H         5.31166814017071    4.46234598360425   14.28868369901758
H         4.35784422552355    3.52716443281281   13.14249560850062

