54
CSD_code = MEMJAS | q = 0 | S = 0 | Stoichiometry = C27H21Br2CdN3 | MND = 5
Cd        2.69165027641699   14.58583666972599    7.02759328217603
Br        3.46911672451929   16.09002867898403    5.16004910968788
Br        3.57794638697378   13.11741360176532    8.87910364882145
N         2.31310951200246   16.54168336689642    8.60342186387518
C         1.78328696432313   17.65857700244275    8.06183301173336
H         2.08005965628855   17.86913859540591    7.04217655043302
C         0.92883434740470   18.48514903296004    8.73603398731843
H         0.52173176736824   19.36298442022006    8.25762282082457
C         0.57566538867361   18.18227213898561   10.06777180028963
C        -0.32547096394323   18.95099613045661   10.83204381138614
H        -0.78098960841470   19.82054303023612   10.38105319698080
C        -0.60669490034227   18.59796967960376   12.12236867061198
H        -1.29523057693494   19.18885741012530   12.70849894979315
C        -0.00403817488802   17.47061216192047   12.70654004115128
H        -0.24024193608984   17.21883285796402   13.72973324314618
C         0.86976332665028   16.70202996463605   11.99009830040830
H         1.33772401925674   15.83189326708975   12.42518699423404
C         1.17388874273318   17.03824863079862   10.65516776618211
C         2.03462425585587   16.26158340362361    9.85256797661759
H         2.49991234461923   15.37743481686470   10.27268474201085
N         0.20144809486134   15.06751488677117    6.97304320099347
C        -0.11716401236629   15.90784383913675    6.01892457551520
H         0.43790670735213   15.81890174918339    5.09283637694647
C        -1.10507727937283   16.89702810680218    6.14906787453754
H        -1.31042091806416   17.55420583824045    5.31903205166086
C        -1.76789290756254   17.01553940580088    7.34003946086111
H        -2.51828416663165   17.77808871374701    7.49493722056326
C        -1.46850385926752   16.11956684666629    8.38586834480665
C        -2.10406259291661   16.16348638821761    9.64332512672109
H        -2.84973561330485   16.92504459401334    9.81965411206459
C        -1.78199594062851   15.25728581755223   10.61409306920797
H        -2.27062148484172   15.29516267053895   11.57591903051889
C        -0.81665040054456   14.26722117638249   10.36930771466917
H        -0.58229328236488   13.55320406648530   11.14393474692682
C        -0.17166466712030   14.20353497524913    9.16543056803537
H         0.57177371507326   13.44419230351400    8.96943239267689
C        -0.47217795804494   15.13275257060074    8.14773861000263
N         2.19103137695333   12.66686798435225    5.55426642870072
C         1.95148432800197   11.45006827847821    6.08903235438463
H         1.74883074830556   11.43389495540669    7.15202071923971
C         1.97075148239247   10.29401431788174    5.35991347762021
H         1.77704858209937    9.34374480844053    5.83349677873232
C         2.25978768394468   10.34501112057423    3.98039446976127
C         2.32204482004872    9.20728999551954    3.15027225762579
H         2.13579010743849    8.23502218071342    3.58245023378062
C         2.61921209648368    9.34226465410518    1.82274023848503
H         2.66982670739296    8.47024393012834    1.18742386682422
C         2.86517461325239   10.60952127837975    1.26542601425037
H         3.10140909334500   10.68564422633616    0.21459217906034
C         2.80965617408811   11.73204224510652    2.04257443701706
H         3.00150904223763   12.71031456705988    1.62751490266682
C         2.50613802708872   11.62368511855796    3.41582146560017
C         2.44915790368411   12.74279029840187    4.27097832027885
H         2.63691622655781   13.72902123110121    3.86174761153464

