73
CSD_code = MEMJIX | q = 0 | S = 0 | Stoichiometry = C28H40NiS4 | MND = 4
Ni       -0.00014107027319   -0.00009245372014   -0.00005182551901
S         0.65384990337678    0.35967612134439   -2.00481458869105
S         1.31342892372764   -1.68337093438854    0.15066312710043
C         1.82875977110465   -0.84837975686468   -2.38806684809121
C         2.50000553540654   -0.94868580467293   -3.63214221447494
C         3.40157721468930   -1.98112464148559   -3.77135562983780
C         3.69617300706650   -2.92432581109074   -2.76853594536304
C         3.04230238322023   -2.81108338771271   -1.56667800338691
C         2.11468728993691   -1.78387916978016   -1.37444006354645
C         2.24739776183413    0.03206473792680   -4.77126454025493
C         3.09751359213225   -0.27460128819855   -6.01090715998248
C         0.77557121019067   -0.04304082242790   -5.20056029272415
C         2.60700828522399    1.45349999565825   -4.31651730882853
C         4.71075084936122   -4.01577636584611   -3.06100644412146
C         4.92813856674829   -4.94347766194037   -1.86304304959399
C         4.20635957556683   -4.86096883015188   -4.23944191113833
C         6.05714909218999   -3.37034831298488   -3.41852076716565
H         3.92284421950421   -2.08457033708088   -4.70586372721235
H         3.20839376793349   -3.48735730783599   -0.74562055351326
H         4.16070539783127   -0.20912292017259   -5.79030527360687
H         2.87371672126916    0.46037242675462   -6.78114683188597
H         2.87007658683017   -1.25791187758159   -6.41669177011538
H         0.60422033686779    0.61871994709013   -6.04632486185363
H         0.52415457780893   -1.05891313844310   -5.49934506021661
H         0.11003699684705    0.25527517339682   -4.39728989234922
H         2.48101587640714    2.14806127717754   -5.14372984930423
H         3.64404626445098    1.49037547657161   -3.98838246098443
H         1.97431868374009    1.78308978526902   -3.49909214519239
H         5.66438679681150   -5.70186515266675   -2.12070166722982
H         5.30081195100181   -4.39084798884684   -1.00401327455157
H         4.00608977997098   -5.45000818109232   -1.58850963026305
H         4.09685125629738   -4.26461062279043   -5.14103089654350
H         4.90806931158951   -5.66564127460311   -4.44737400677901
H         3.23963428245560   -5.29893495693279   -4.00028536842513
H         6.80246807506759   -4.14178314426278   -3.59894222711967
H         5.98295873565064   -2.75638535790961   -4.31171812582528
H         6.40156486147909   -2.74235561750389   -2.59967781042382
S        -0.65435050019667   -0.36004341841215    2.00458788107343
C        -1.82896379813726    0.84823210018691    2.38796123401437
C        -2.50008783504446    0.94862929940451    3.63210387802491
C        -3.40160173437233    1.98110444896992    3.77135900580579
C        -3.69614847126774    2.92436887234479    2.76857548699820
C        -3.04233796599053    2.81109921723561    1.56669103266188
C        -2.11485380162553    1.78378568186283    1.37437359091786
S        -1.31377667074341    1.68317336852450   -0.15081770919257
H        -3.20837129059533    3.48740719878095    0.74565021809387
C        -4.71071835632283    4.01582265158304    3.06105879988168
C        -4.92728924716685    4.94418406515726    1.86345921031628
H        -5.66338280540242    5.70269974905955    2.12118331109607
H        -5.29979426215561    4.39212824885778    1.00398946679072
H        -4.00493454562602    5.45051466856399    1.58958190504132
C        -4.20699068290503    4.86037904280251    4.24023324769510
H        -4.09839306538907    4.26365486688183    5.14168591914812
H        -4.90863007652779    5.66517563633045    4.44792563380505
H        -3.23995072616516    5.29815729500240    4.00201610995766
C        -6.05737738955450    3.37030078180329    3.41741947565033
H        -6.80266763566319    4.14168741566011    3.59816344675300
H        -5.98363605081220    2.75556255851626    4.31012348773970
H        -6.40152265921136    2.74303769735402    2.59790181752552
H        -3.92285814282608    2.08456071148694    4.70587280154565
C        -2.24735068631993   -0.03205514050567    4.77125296879802
C        -3.09711641091772    0.27485172239590    6.01107605272728
H        -4.16037233585490    0.20943807446647    5.79077069955578
H        -2.87318280145488   -0.46004018051448    6.78135407362124
H        -2.86948086574588    1.25819845804071    6.41666148805514
C        -0.77541286854524    0.04289722345729    5.20020206326301
H        -0.60397492432917   -0.61874948316770    6.04603916163298
H        -0.52377471778113    1.05878052524295    5.49876276909458
H        -0.11010198485962   -0.25565714202251    4.39683498211946
C        -2.60723361118363   -1.45348523795939    4.31671252091559
H        -2.48108479175173   -2.14798760199501    5.14395160302380
H        -3.64436905208607   -1.49028210151113    3.98887604889691
H        -1.97480360676112   -1.78320309609369    3.49913521598323

