75
CSD_code = MEMLAU | q = 1 | S = 0 | Stoichiometry = C34H35N3PRuS(1+) | MND = 8
Ru        5.76715752141973   14.20710341758928   12.96946681949465
S         3.55673423452305   13.28966686203013   12.88739501904848
P         6.78020004129400   12.28928670444136   12.22156283433235
N         5.23728793670827   14.87699796761528   11.06700302113783
N         3.89473574237753   14.78714757079278   10.76414092126151
H         3.60229431104219   15.22866513954916    9.89118119420304
N         1.76235465001658   13.95751500348550   11.05288060021996
H         1.47152852263266   14.53697055900930   10.27774594373152
C         5.97117851861576   15.50250954661761   10.20442972345937
C         5.45758756825684   16.03610233893913    8.92382124948127
C         5.56597773835102   17.39433268846379    8.63213728690029
H         5.98568991817326   18.06859083089224    9.36315597052255
C         5.11686095674740   17.88453537422018    7.41964351255632
H         5.20042539183348   18.93878882026075    7.20648249245017
C         4.56947309823475   17.02701035021315    6.47900866696542
H         4.22845136089810   17.41151438493893    5.53077621945053
C         4.46993179227246   15.67328771309228    6.75512503800723
H         4.05832134940949   14.99813379222515    6.02076995838442
C         4.90387514027802   15.17720340748566    7.97148391073099
H         4.85951817548259   14.11551551115453    8.17315654969993
C         7.42562236677034   15.69048843701917   10.45099101616793
H         7.71329769780552   15.20116986378892   11.38089833686488
H         7.66893323874178   16.75058330594428   10.50801848067184
H         7.98953343123930   15.27219600674500    9.61727239418555
C         3.01876675132977   14.06454969494057   11.49811844003810
C         0.70283181639073   13.32825752133955   11.81939017231984
H         1.14473371528193   12.49945217632373   12.37515072465168
H        -0.02583209990429   12.93271567389233   11.11004602809152
C         0.03716987310901   14.30768450230896   12.77885883646916
H         0.76314562480608   14.68659728481677   13.49328404546045
H        -0.75284824840542   13.80261616770825   13.32526622943648
H        -0.39744507181314   15.14533082047624   12.23846925267704
C         5.29741515082030   15.86988884790491   14.37661656943091
H         4.42750494468001   16.50824531788475   14.44588585972451
C         6.52296130511412   16.20632782157255   13.74982219960429
H         6.71436621212476   17.11500278665893   13.19499621852963
C         7.47853092649148   15.21444177934953   14.06492258046456
H         8.53959076542187   15.25780640793594   13.85960891580642
C         6.84621733393160   14.26469786121098   14.93205651978818
H         7.35703785123361   13.47511663407585   15.46776301100741
C         5.51650377676013   14.68378428545178   15.13582802020981
H         4.80690238879616   14.23804298889219   15.82063310205617
C         9.49179193652371   12.94437276355299   12.15843471187532
H         9.20779784806364   13.67855543265629   11.41819012809366
C        10.81232782839503   12.84656574604905   12.55480692607395
H        11.55335044921691   13.50100500201745   12.12010344228571
C        11.18357404255357   11.91417471289835   13.51049340111386
H        12.21411762085926   11.84048700613969   13.82175171852256
C        10.22750163522438   11.08171691416947   14.06717406505230
H        10.51107966449982   10.35772142465445   14.81598009179052
C         8.90494951611261   11.17165242124944   13.66946181366140
H         8.16641774364437   10.51870376291873   14.11132111499924
C         8.52648688145796   12.09783266051338   12.70178037490402
C         6.04885660106084   10.74279114199352   12.84902214151933
C         6.23556358634039    9.53382245601576   12.18357075911292
H         6.79995599623197    9.50694765869070   11.26189938470714
C         5.69955402735049    8.37177061578030   12.70706932627413
H         5.84346523295634    7.43545235778914   12.18933328578546
C         4.98245538441354    8.40554261562721   13.89300930915269
H         4.56554877689482    7.49535018759668   14.29622458362345
C         4.80274911480067    9.60508741765052   14.56235507355743
H         4.24828782841378    9.63146576630671   15.48827701687316
C         5.33545357377732   10.77081930057374   14.04271277898414
H         5.20187455075930   11.71451871532663   14.55946714299479
C         7.81862686449969   11.81319785597279    9.58887253141312
H         8.82010070773910   11.84966491072963    9.99078500287522
C         7.62640612127094   11.58158692438751    8.23615182820605
H         8.48185944026262   11.45682717612513    7.58961557065584
C         6.34778846195959   11.49445036921907    7.71354622441906
H         6.20567541950134   11.30597319614000    6.66046580335987
C         5.24786664616626   11.63579525062961    8.54780266782472
H         4.24845667058913   11.54197583339893    8.14668758245329
C         5.43471596740367   11.88125260093777    9.89421580154163
H         4.58434762811707   11.97794466546925   10.56232988122137
C         6.72167251049371   11.97160096808454   10.42522463024564

