87
CSD_code = MEMQEA | q = 0 | S = 0 | Stoichiometry = C42H39CoNOP3 | MND = 4
Co       -1.11235013889890   13.50450135994974   11.49910193198215
P        -3.11996638562938   12.62483477337546   11.76652358905736
P        -0.64458770898928   12.68910182164493    9.42486066418058
P        -2.03927599318939   15.18009398184137   10.55557250392256
O         0.94537152615683   10.72926932554013   13.77708263066934
N        -0.06389092714677   12.47696585789127   12.56228562818809
C        -3.73870009927841   12.28347213708664   10.05238825572808
H        -3.28286526383899   11.33275717259471    9.75681263721929
H        -4.82222733532532   12.14042549731258   10.11012434652466
C        -2.06159592362758   13.10044276735531    8.29534094010181
H        -1.79501156130184   14.02298259668189    7.77125834728157
H        -2.14091271504328   12.29382766238704    7.55885514818330
C        -3.50526482059931   14.75885496895829    9.52580229797175
H        -4.38658157216400   14.83959124460271   10.17142092745703
H        -3.60663513929543   15.47086047539303    8.70107386634537
C        -3.42582592068976   13.33079510411986    8.96805078874344
C        -4.50013403551408   13.19511575154991    7.87559175554022
H        -4.55623836345510   12.16810860141903    7.51940357514469
H        -4.26876483329163   13.83687489670232    7.02708113584238
H        -5.47813247712171   13.47947741115151    8.26059102883679
C         0.41949421489631   11.57893437979417   13.15588131007893
C        -4.43441806962380   13.64338957627927   12.53299584674408
C        -4.00155701922558   14.61742601039727   13.42603239217005
H        -2.93890719486657   14.71233328999727   13.61485436785358
C        -4.90727850637294   15.44648492529479   14.06111784864563
H        -4.55801747389669   16.20577980335198   14.74525501487656
C        -6.26094844417720   15.30370034911162   13.80875754952567
H        -6.97447101557002   15.95442355413628   14.29249384952723
C        -6.70309579874478   14.31502289634014   12.94365877015814
H        -7.76149429779343   14.19106225115849   12.76317013824563
C        -5.79763803885645   13.48144076965411   12.31287801821954
H        -6.15948460511720   12.70183905020287   11.65691791456798
C        -3.48975686172080   11.05362349656549   12.62031544073940
C        -3.03332531262610   11.00855824402982   13.93652109632438
H        -2.52417197923618   11.87502546897524   14.33888373648513
C        -3.20318064170515    9.87325755641122   14.70274472363634
H        -2.83897767323630    9.84601100048605   15.71884301809359
C        -3.82800406992466    8.76271929364052   14.15678625125921
H        -3.95509339631417    7.86746588235948   14.74751432259095
C        -4.28050315114256    8.79899221791011   12.84914774787987
H        -4.76380759718575    7.93193891391584   12.42126729786573
C        -4.11403813655225    9.93697285976940   12.07807100690386
H        -4.46825450195373    9.93663643441957   11.05810690386718
C        -0.66414212456186   10.86246734379372    9.26895789241356
C        -0.99428940743576   10.08031021672002   10.36755909875931
H        -1.19480107818007   10.55971998359420   11.31565778434340
C        -1.05307496313304    8.70238060403772   10.25598547285805
H        -1.31323703150960    8.10750520792529   11.11908958862855
C        -0.77308089460409    8.09509784122431    9.04385780600352
H        -0.81370182980752    7.01945345530960    8.95305033241215
C        -0.43168559000983    8.86910008447339    7.94522494093194
H        -0.20424420285706    8.39564893166462    7.00068045773922
C        -0.37794015759485   10.24596824825146    8.05337569564017
H        -0.10218797595100   10.84583810045143    7.19602340365868
C         0.80732964245818   13.01777134086599    8.37102451681396
C         2.00395705522306   12.58297626593612    8.94369918052992
H         1.96300508053697   12.06900185321107    9.89678896129144
C         3.21102657904143   12.80856247619318    8.31569325849059
H         4.12960286296135   12.46153316838097    8.76591547503201
C         3.24225761935907   13.49064307004957    7.10810275446961
H         4.18458208144001   13.67539642613898    6.61355073152668
C         2.06244484508488   13.93902122929352    6.54119764056852
H         2.08391560208320   14.47482287374289    5.60272763293479
C         0.84864021330978   13.70846737180527    7.16638651034898
H        -0.05447852917067   14.07260238698616    6.69916454208083
C        -0.89230473378092   16.06849518097454    9.44178435423377
C         0.46077429231894   15.85835546236303    9.68665953005831
H         0.75140673606715   15.17524401121990   10.48111680468639
C         1.42076012727277   16.49918322439795    8.92639235965001
H         2.46885435261780   16.32298819440016    9.11748548855905
C         1.03123328159095   17.35741782461863    7.91195527271660
H         1.77574256775654   17.85231219367479    7.30601160948984
C        -0.31483970723183   17.59079042083275    7.67871050901860
H        -0.61637579303088   18.27344838556929    6.89688039319043
C        -1.27654886102310   16.95904635907009    8.44623991346313
H        -2.32317922100839   17.16760988987375    8.26970433220515
C        -2.61637488072417   16.63739416917032   11.49192714089681
C        -1.77302088131034   17.02035746822435   12.53241673909757
H        -0.88007844485040   16.43302861225282   12.72175489944769
C        -2.07780137907147   18.11219669134350   13.32019476184865
H        -1.42064418914363   18.40011726486849   14.12782421708644
C        -3.23616736582909   18.83292357702423   13.07462698033655
H        -3.48501830339492   19.68397628614529   13.69149729429371
C        -4.07591951933878   18.46062229865713   12.03909467062203
H        -4.97815932087815   19.02385131887721   11.84796443275872
C        -3.76955925543859   17.36943829267852   11.24419511664965
H        -4.43795803874903   17.09592276174877   10.44131293703349

