51
CSD_code = MEMQAX | q = 0 | S = 0 | Stoichiometry = C20H18F10N2Zn | MND = 4
Zn        2.58133481971401    3.39185575712788    1.43078750587156
N         0.92980284148477    3.67256338472646    0.04027443823768
H         0.74370907836261    2.77973132819445   -0.41658400771171
F         0.70084102408107    0.71258523092340    0.85593813527296
F         0.47897617478846   -1.57065977130114    2.32431409581049
F         2.01340202018433   -1.90116135940123    4.56141155259309
F         3.76813459633365    0.05785110247416    5.30535384468129
F         3.96043316461381    2.33927214990125    3.79203329993688
C         1.46032283514147    0.56498091563001    1.96821109828155
C         1.33362463690400   -0.60867967232059    2.70160607402731
C         2.11369051384624   -0.77970782223069    3.83956590831831
C         3.00463591826693    0.22018040582169    4.21707330930233
C         3.08513955440671    1.36955680951824    3.44218994734644
C         2.32954910194911    1.58896274168462    2.30175208347940
C         1.02972194605175    4.68931304614328   -1.01121933322227
H         1.70748359157417    4.36651966805234   -1.80074725171281
H         1.42808890651204    5.60163820859436   -0.56139901797593
C        -0.40662195656449    4.92256858215166   -1.51598473253402
H        -0.58383429393688    5.97807575774628   -1.71047556592811
H        -0.58614093572187    4.37754931249268   -2.44201231950312
C        -1.30060866742758    4.38921589881562   -0.38273994915224
H        -1.83699194365198    3.49650142484367   -0.70378281600923
H        -2.03296678619070    5.12209812349898   -0.05378536948050
C        -0.31159078248317    4.03687206711442    0.73461516479621
H        -0.11231113394793    4.91086413532781    1.35783169428405
H        -0.65059100632485    3.22153814284778    1.37080986081289
N         4.23286732384587    3.11114131856014    0.04027754065977
H         4.41896239663575    4.00397129107467   -0.41658441104950
F         4.46183368392665    6.07112281856446    0.85595103586691
F         4.68370733485294    8.35435896575262    2.32433966876407
F         3.14926208997979    8.68486695342680    4.56142252150973
F         1.39451067412694    6.72586444844877    5.30534554801295
F         1.20222360988378    4.44443952312407    3.79202840928535
C         3.70234851579066    6.21872650384058    1.96822167273664
C         3.82904837141051    7.39238414198412    2.70162103134440
C         3.04897396329122    7.56341493460311    3.83957465629355
C         2.15802032287574    6.56353069594772    4.21707330641257
C         2.07751960293928    5.41415440983352    3.44218941941309
C         2.83311624926581    5.19474766289587    2.30175573219995
C         4.13293342897733    2.09438956437866   -1.01121310801506
H         3.45516626491480    2.41718440554921   -1.80073558864785
H         3.73456529806059    1.18206781300620   -0.56138672897415
C         5.56927160650850    1.86112379187997   -1.51599009415811
H         5.74647709859676    0.80561434848774   -1.71047488519426
H         5.74878701033399    2.40613597784289   -2.44202270642825
C         6.46326811733646    2.39447700529567   -0.38275508119984
H         6.99965271464392    3.28718701968357   -0.70380386456133
H         7.19562629949840    1.66159434327728   -0.05380616648668
C         5.47426424775175    2.74682615187873    0.73460871820973
H         5.27498522830782    1.87283321606445    1.35782408134155
H         5.81327532828006    3.56215712622839    1.37080164284410

