57
CSD_code = MEMQEB | q = 0 | S = 0 | Stoichiometry = C22H22F10N2Zn | MND = 4
Zn        5.12546788254711    6.50197301619647   13.29120771343970
C         4.14927127368567    8.26361145770479   12.98929951845993
C         3.88211172731252    8.78395514223731   11.73325377602741
F         4.38846582540759    8.13157712801795   10.66251541772898
C         3.14125177056877    9.93901933965887   11.51440086041653
F         2.92857609813577   10.40018136093515   10.27437934312397
C         2.62138402921480   10.62267120398002   12.60797340676910
F         1.90826920733636   11.73948533779324   12.42842039289413
C         2.85338232400585   10.13730662473261   13.89034252695937
F         2.36208963489115   10.79052434365573   14.95219686797402
C         3.60158217618913    8.97681916295392   14.04348098034084
F         3.82837960706516    8.51419341177888   15.29426074864593
C         4.14966090785919    4.71812779340616   13.41029145810005
C         3.82196885613667    3.99876500297357   12.27228160238172
F         4.26358584952124    4.47413142509173   11.08531832813092
C         3.08626088524094    2.82037613161672   12.28334342916339
F         2.81525052915587    2.16181171883242   11.14827030830223
C         2.63341948408474    2.32264068660569   13.50034607191265
F         1.92617589107877    1.18863447296219   13.54419038959890
C         2.92645737921014    3.01206125597067   14.67180170474752
F         2.49906707610405    2.53957678539315   15.85065586436086
C         3.66811080661461    4.18469027162659   14.59492909384523
F         3.95368087337377    4.84180544887595   15.74162514466160
N         6.32011348314349    6.70730490070560   15.08982539232210
H         5.53660821546645    6.74208914858701   15.74552843904530
C         7.13784459462615    5.56127059042303   15.50399826560852
H         8.03730141991290    5.54331136696795   14.88243715815602
H         6.57479707667899    4.64537834595327   15.31863461683651
C         7.52537693848949    5.65463774018230   16.97805357260230
H         8.13788900612250    4.79521097670097   17.25321772415053
H         6.61862601229274    5.62982259221734   17.58632054227984
C         8.28483012884945    6.95342038201970   17.23720503066309
H         9.23498011575627    6.93302999037158   16.69771222030365
H         8.50723968637281    7.05372080780100   18.30025282887400
C         7.45401998146595    8.14149779902489   16.75855701105328
H         6.54505848833353    8.22082803111223   17.35883637567997
H         8.01560926424683    9.06911811845246   16.87533348548734
C         7.06762932313825    7.95369700064688   15.29306956183793
H         6.45284091413745    8.78904263861726   14.95488806638823
H         7.96661332984766    7.91670419055495   14.67173640755954
N         6.63738231587186    6.32743992843737   11.74654239497968
H         5.99135555561758    6.27685393185656   10.95591449009675
C         7.43697357412039    5.09823870862552   11.68951352994170
H         6.78803938838141    4.24887939047406   11.90783287731668
H         8.20220416559687    5.15353353876250   12.46856515380778
C         8.09569866554756    4.92219206475108   10.32300920543370
H         7.31767602093741    4.82335436903363    9.56287284011456
H         8.69004153198555    4.00772621525064   10.31604759246725
C         8.97487391120417    6.12945340593687   10.00601327610251
H         9.39456744938009    6.03634351969293    9.00366614510035
H         9.80634733571928    6.16982859675788   10.71393372889599
C         8.15161928159245    7.41049335119870   10.11548475782364
H         8.78570740867161    8.28384195785671    9.95822287531912
H         7.37467565281471    7.41644899587680    9.34790462277677
C         7.49261017411706    7.49217672604022   11.49056939384817
H         8.25899018998030    7.52873901928447   12.26966178518587
H         6.88468930484021    8.39503313682498   11.56515368395680

