67
CSD_code = MEMVEG | q = 1 | S = 0 | Stoichiometry = C22H32N9O3Zn(1+) | MND = 6
Zn       14.64651034731762    4.09463269011102    9.56198762328916
O        17.87920303635306    3.99062265168217    7.92061602115169
O        16.01661980801775    3.07242991465552    8.39534724598439
O        16.44750509377133    5.01953378500802    9.11583699111658
N        14.53259753498862    5.97585105080815   11.85359475719570
N        13.81097367217764    5.53164467426199   10.80773433248581
N        15.64613239668335    3.36634773146104   11.23220084372193
N        16.10197583522334    4.23119629014585   12.15912282896284
N        13.90624114797078    4.83688197093642    7.77474765560337
N        13.31747373486890    3.99584062808405    6.90255357421152
N        12.67937455070647    2.22705784474488    8.33593683758672
N        13.09815583761554    2.70720530232599    9.52200413762022
N        16.81643359259126    4.02658443146539    8.45934216246995
C        14.30305172852055    7.37418286426960   13.91305187344877
H        14.66752697323570    6.62551123020596   14.61559831424524
H        13.50549256120927    7.93260391456186   14.39376655868371
H        15.11537690610689    8.06409107944295   13.68717756916798
C        13.78254613082943    6.74048305389758   12.67803602624587
C        12.52020106741088    6.78419701222493   12.12553942226141
H        11.66675709771562    7.30369388040842   12.50865555735663
C        12.58257028332409    6.01252439517754   10.95801157736741
C        11.47792721511543    5.76164075378616    9.99987716960102
H        11.33980320288641    6.62653160777255    9.35209794769483
H        10.54657098703021    5.59836694987305   10.53700058683008
H        11.69585517089972    4.89853360502053    9.38139570578237
C        15.92683409827278    5.64572855339777   11.96571243612676
H        16.35857692437857    6.17909995172219   12.81306865806200
H        16.43206629728990    5.93876919282342   11.03587814723045
C        17.40450166351188    4.27092120084041   14.29202274725974
H        18.18851123053360    4.94865993820941   13.95580289968745
H        17.85266045925422    3.53014460864929   14.94729815958664
H        16.67523420609097    4.84062191045051   14.86718834813689
C        16.76860618837570    3.58428901368522   13.14219202353487
C        16.72395210131162    2.24317141104892   12.82500447162124
H        17.15445226115209    1.43626676200935   13.38013061314452
C        16.01450267460379    2.15063083418322   11.62061952554740
C        15.68329482895846    0.93019668255547   10.84828703201487
H        14.67264985205887    0.59653217692543   11.08013680120439
H        16.37687011778918    0.13345040407993   11.10085813661079
H        15.74171460893290    1.13921740769058    9.78342259315395
C        14.34220410468992    7.25724064177851    7.95258340941588
H        13.64545096105104    7.63543577419891    8.69887173780024
H        14.52573208387323    8.04186980452958    7.22404275510487
H        15.27264402143174    6.99935001496853    8.45126722532083
C        13.78769837837811    6.06091678337339    7.27582768121996
C        13.10075584808606    6.00040271556503    6.05594048208426
H        12.85713459225270    6.82107924756762    5.41407964105758
C        12.81660028692782    4.66871749154470    5.84109831875000
C        12.12324383752646    4.01269739650881    4.70647386104131
H        11.25191603798961    3.45316447613380    5.04547956522208
H        12.79222030623251    3.33130067959472    4.18160368943685
H        11.79024414499055    4.77071632677852    4.00390390283058
C        13.37690075042443    2.57683739107182    7.12809092418401
H        12.92217398108376    2.05760978168033    6.28415070791105
H        14.42973366672602    2.28295448017250    7.23224036278706
C        10.91135611103673    0.75634771657281    7.35565878768554
H        10.51192306651155    1.47581246208819    6.64149158822379
H        10.08584327053626    0.16503562232749    7.74039804277405
H        11.59552957091458    0.08998103956659    6.83168957958875
C        11.59113758836682    1.43895310775966    8.48243495520932
C        11.30343492318991    1.42107361835968    9.83088696576349
H        10.50724166379882    0.89326739081426   10.31280170706453
C        12.26769789902695    2.23158462366583   10.44294402854870
C        12.36580873482464    2.56490862699089   11.88473785911332
H        13.36768565158808    2.89637826612949   12.13354538256446
H        12.10996279375268    1.69608533256467   12.48623058419664
H        11.66462229970160    3.36178982708952   12.13017034209879

