71
CSD_code = MEMVUV | q = 1 | S = 0 | Stoichiometry = C33H33ClN3Zn(1+) | MND = 4
Zn        3.51942645494803    2.90580350137747    4.21732165097975
Cl        5.38853576694421    3.49558637750852    5.15767719837483
N         3.33372720491148    3.00246065265305    2.22110875146191
N         1.81722828061911    3.86460573944074    4.68656594344398
N         2.82349224215569    1.03727051592394    4.46124339644253
C         1.57961687967594    0.88114655028209    3.74359974254370
H         1.21411539008277   -0.14965157946807    3.88233654265546
C         1.78180997794872    1.10130764837811    2.24023184734592
H         0.88518356839915    0.74944087312064    1.72704195210650
H         2.62507558358146    0.49627218498107    1.90001731227274
C         0.50776884167511    1.82892332314631    4.29425312355194
H        -0.45579134161345    1.51843190674302    3.88659653684478
H         0.46387925975176    1.72701821569053    5.38085532207170
C         0.71723194570575    3.30475086302485    3.93598911892680
H        -0.20685487154972    3.84491704649558    4.19996126064697
C         0.93607170931490    3.47349524166035    2.42837692140295
H        -0.00685909000731    3.24978137174341    1.92645525353992
H         1.19220819773225    4.51419978265007    2.21792806892261
C         2.01429902230078    2.56073038434223    1.83296701110734
H         1.92758521454438    2.61686848884900    0.73536986985089
C         4.16137606378822    3.38014441051700    1.31273919100040
H         3.85230749240005    3.35648624793531    0.26343482027489
C         5.47078731798946    3.83585382368682    1.59779580955386
H         5.76258543594194    3.85232811795633    2.63635365135518
C         6.32396121331642    4.23947348994196    0.62746295481642
H         5.98446057369034    4.20602478246720   -0.40244422491918
C         7.66447933685749    4.72497644928559    0.81642418097711
C         8.40253548325588    5.11821677487944   -0.30989983048160
H         7.95154786823533    5.04630304168492   -1.28917569116471
C         8.26805952798691    4.82567443426936    2.07877842949999
H         7.72820265748373    4.53036257090722    2.96440264387768
C         1.59091646954715    4.82731757026007    5.50791401453410
H         0.57157884887536    5.20951100381186    5.61757983365526
C         2.60178395663214    5.42748800912548    6.29641844841291
H         3.60164480903688    5.03922252915066    6.17974890791226
C         2.34160744890284    6.43475659230847    7.16244939043568
H         1.32079788460363    6.79346634299998    7.24232308508883
C         3.29303062804966    7.09677826535467    8.01396898682226
C         4.65281560230449    6.75372038587382    8.04944776649842
H         5.03106428417728    5.96536397607186    7.41823625138498
C         5.51831716955067    7.41970432440947    8.89204971286975
H         6.56229430496266    7.14603677512782    8.91144543221534
C         5.05556855405373    8.43760563543834    9.71432344419940
H         5.73822672194183    8.95400117548369   10.37168644493714
C         3.71433363861685    8.79052965921898    9.69044001930688
H         3.35223500118697    9.58213272000538   10.32847027393581
C         2.84263196593579    8.12854502169876    8.85097298846981
H         1.79818054702760    8.40494626087620    8.83451620728143
C         3.29074686997574    0.04474625347852    5.13149180017136
H         2.73985404831411   -0.90048440739079    5.14382592561804
C         4.49865549767806    0.10722299646308    5.86684315509801
H         5.03253081690578    1.04444389410544    5.84150644564239
C         4.97249390614345   -0.94543758354386    6.57363446514008
H         4.39889095895256   -1.86632642408673    6.57246066275019
C         6.18361996258481   -0.97728348321908    7.34879166187272
C         6.50940265012674   -2.15379942389306    8.03985210394254
H         5.84705726149898   -3.00514151864320    7.97618333830167
C         7.05640504276236    0.11681977245545    7.44465141445830
H         6.83569551070752    1.03540666530829    6.92457705580141
C         8.20544631176839    0.02804063403670    8.20253717538578
H         8.86998454327824    0.87616420123606    8.26761885640010
C         8.51205733323791   -1.14352770138880    8.88062531039633
H         9.41275101219426   -1.20590519053283    9.47195930826084
C         7.65956798455343   -2.23452786599499    8.79713617406279
H         7.89562142793082   -3.14652304574412    9.32379315600540
C         9.69067761487530    5.59456154731731   -0.18108663288715
H        10.24508704203594    5.89410692216503   -1.05728956447494
C        10.27233141576051    5.68817709655313    1.07467304453194
H        11.28006632673463    6.06084156683419    1.17664763190699
C         9.55684698237929    5.30207397040153    2.19958250648728
H        10.01072843626597    5.37492164478040    3.17622503795887

