25
CSD_code = MEMXAD | q = 0 | S = 0 | Stoichiometry = C7H9Cl2N5SZn | MND = 5
Zn        2.56592747088414    1.95292124390383    0.73699129022704
Cl        3.74644281913535    1.06639110915226    2.51938746106094
Cl        3.68481566417426    2.78506242692277   -0.97164776749984
S         1.06239835896046    3.78214016079764    1.85659951404933
N         1.91167237274006    0.11871688691365   -0.32691607210914
N         0.87002938911172    0.86905709576783    1.96349929172693
N         0.69476032752580    1.49076043809012    3.14802594618143
N         0.56980923182182    3.41853656664632    4.39586522899129
N         1.19632078589090   -1.30507183166720    2.85546874134117
C         2.19035335569439   -0.17137429938647   -1.58492870876656
C         1.94005488191212   -1.42279858217508   -2.13030292775060
C         1.37680475111200   -2.39730663401089   -1.32209473723879
C         1.08783549165524   -2.09141242543524   -0.00161355621220
C         1.36976165563437   -0.80985076808161    0.46045698081335
C         1.13363929632024   -0.37813681582271    1.84814806326944
C         0.78958456185313    2.83717573664602    3.20233820202143
H         2.63984507239907    0.62893316231802   -2.15668036974929
H         2.18482768185426   -1.62497952597734   -3.16037424209542
H         1.16472938590316   -3.38221893423493   -1.71065987418532
H         0.76100806152851    0.96603016234557    4.01811461040987
H         0.63008995994743   -2.82056977657177    0.64905190290141
H         0.56248282938049    2.88781422912312    5.25129965640929
H         0.72077020521305    4.41162594362312    4.45194650262061
H         1.66920924832388   -2.16245616533184    2.61356276741373
H         1.49912714102775   -0.94958940347063    3.75156209616897

