51
CSD_code = MEMYIN | q = 0 | S = 0 | Stoichiometry = C24H16FeN10 | MND = 6
C         4.66537205312876    4.46735913461368    7.99943953317954
H         4.32930745074407    3.93829290986253    7.12010572403085
C         5.68270302628993    5.40922130556727    7.91083201527127
H         6.13723265102301    5.60319616010068    6.95174183700728
C         6.09354277566871    6.09809529873524    9.03625176305223
H         6.87005646902457    6.84543444813236    8.98468478756931
C         5.46911012570748    5.80756716667285   10.25865158810565
C         4.45596013374594    4.82842577366454   10.24727793050837
C         5.78065877123315    6.43604807203261   11.49852913819229
H         6.55080655146829    7.19335552668424   11.50201521248462
C         5.13087535381476    6.10718789472345   12.64498978730002
H         5.37341564399411    6.60077801435922   13.57446301498495
C         4.11466689251771    5.11094473805974   12.66085827834292
C         3.79252169315128    4.47479523963057   11.44438295701644
C         3.39514661522842    4.71343396151199   13.79807319087172
H         3.59294265211666    5.17691538909545   14.75265484393914
C         2.43243976265255    3.73657401769271   13.66085973507077
H         1.85124118922583    3.41266858794537   14.50964622478806
C         2.18990797770835    3.16211711729803   12.41331016669481
H         1.43246400404961    2.40654423573288   12.27239484628214
C         4.33535260362579    0.91746802144671   10.45446336117551
H         4.44595436022424    1.48705863430006   11.36517501981116
C         4.94267696287227   -0.32472572562140   10.32078495771141
H         5.53158283786820   -0.71258148031353   11.13741538660210
C         4.77903440027813   -1.05861720608380    9.16111298013561
H         5.22823749469095   -2.03274227355895    9.04505690029082
C         4.00345591226427   -0.50787904724856    8.12975702547026
C         3.74263589674228   -1.14444386767765    6.88228824517604
H         4.16791027081528   -2.12323288066473    6.71553529060230
C         2.97863566586740   -0.55221459379481    5.92814416025882
H         2.78356447375968   -1.05353531884923    4.99165573310057
C         2.41237166507069    0.73805942757996    6.12809046399289
C         1.61371493585699    1.41948988449731    5.19711161923632
H         1.38196050846426    0.96325827359004    4.24667037435616
C         1.12935234777393    2.66593059867178    5.53125325472648
H         0.50298476697933    3.21546625734065    4.84658702077756
C         1.43626445573581    3.22779807442075    6.77033386426522
H         1.05987800079874    4.19514547370426    7.06537955631544
C         2.66035157328443    1.38658646717416    7.35545802506652
C         3.43950152245856    0.76333231561819    8.35671239050330
Fe        2.54747926276792    3.05767266853051    9.49214876328199
N         4.04388154956211    4.17063716707322    9.13694901316988
N         2.84896664461173    3.51407998000777   11.32195808931429
N         3.58664285785144    1.46902948114082    9.50381437237788
N         2.18472764784193    2.61246159600949    7.67054015108425
N         1.42016513286102    4.60320794396238    9.33194913459324
N         1.19475474191355    5.45589811839969   10.09852905524732
N         0.93566762713696    6.34221331186156   10.76314066488306
N         1.02247880231054    2.01505313398620   10.00972702009613
N         0.28940171758884    1.37456981673034    9.36299674090922
N        -0.45835843238658    0.70600075565492    8.82619879076929

