61
CSD_code = MEMZIN | q = 0 | S = 0 | Stoichiometry = C22H32Cl2MoN2O2 | MND = 6
Mo       -2.50090448528923   21.79968083126293    1.84003862190773
Cl       -3.43040084849236   22.91488794121737    3.68216547607179
Cl       -2.65834654964243   21.36891903348498   -0.45934042734639
N        -0.86599524052814   22.40917402129784    1.93186448659148
N        -2.50363659488452   20.15806265624999    2.43926641059774
C        -2.41818239305165   24.65505117193916    0.03367785789993
H        -1.47182792077550   24.71340273871112    0.57147132189045
H        -2.79278904190551   25.66515004614082   -0.17142147107714
H        -2.26912011072281   24.11897674355160   -0.91124467136961
O        -3.32514407746358   23.96263035906284    0.86987372426178
C        -4.60319608774107   23.81910444419620    0.28024584410918
H        -4.51767943896920   23.27576956929595   -0.67451242617185
H        -5.03688410756499   24.81417753870277    0.09654952186757
C        -5.50523570056580   23.04409784706822    1.23406539844702
H        -5.55788613196577   23.56646475369054    2.20282770670052
H        -6.51549845852149   22.97257186084866    0.80255159980811
O        -4.97612591389965   21.74452861365089    1.41482352305493
C        -5.74717894089347   20.96604693125565    2.30955133792133
H        -5.26341398198154   19.99188416712004    2.38071390999711
H        -6.76644383253421   20.84843704155330    1.92236227568338
H        -5.78193302228820   21.42967690344270    3.30263303057126
C        -2.36057106553964   18.93757227528218    2.95784357749412
C        -2.59501601290553   17.78874467936053    2.17170264728484
C        -2.46136290949549   16.53704800659205    2.74388362517376
H        -2.64197976025364   15.66244265787017    2.13366405701969
C        -2.10326436938282   16.37745737341957    4.07533880239825
C        -1.86069367878346   17.51554872386275    4.83884445570605
H        -1.56930104687722   17.40212083062177    5.87421376866062
C        -1.97352323442603   18.78465445408880    4.30998462616645
C        -2.95654198445400   17.96375590932139    0.72827511919366
H        -2.11987556170225   18.40816755265262    0.18334713945245
H        -3.80586462582530   18.64418392194248    0.62181077828042
H        -3.20637059152379   17.00991335925283    0.26952605313279
C        -1.96215664467396   15.01556884719664    4.68675756584215
H        -2.26754881312081   14.24148155620338    3.98698726456922
H        -2.57239985000989   14.93468534759107    5.58564889803394
H        -0.92573562136439   14.83428429462940    4.97181269077077
C        -1.70817770787196   20.01410802589182    5.12212230183454
H        -2.63877223570622   20.55669642246896    5.30484185728926
H        -1.04025972266144   20.68340896626688    4.57035540013564
H        -1.25834302102640   19.75876013663788    6.07814792616591
C         0.42410671132698   22.73589337634634    2.02038660411229
C         1.37620006486919   22.09451023757464    1.19447205892392
C         2.70209650974928   22.46894527879282    1.27778256633064
H         3.42573093037180   21.97961549060566    0.64018765612759
C         3.13315664761039   23.45175881411795    2.16266971803729
C         2.19423043263992   24.06033663954041    2.98491459757046
H         2.51553181102329   24.81855464628275    3.68616396798505
C         0.85453699739791   23.72469088701718    2.93210649727447
C         0.90564558083170   21.03461977401148    0.24757646072431
H         0.24466470845472   20.33730190863539    0.77245873118134
H         1.74608601603176   20.49012356031354   -0.17500496681370
H         0.33089730965875   21.48039987176756   -0.56751388035320
C         4.58465527758574   23.81947055129033    2.24224729460353
H         5.03017591880430   23.85089043448801    1.24972886880797
H         5.12829037492733   23.07777956064350    2.82890492566028
H         4.71438946592132   24.78895768448009    2.71749974724365
C        -0.15718584463537   24.36459029877789    3.83272299656709
H        -0.56894672636415   23.62286365312285    4.52097102414157
H        -0.99338769932294   24.76321632036721    3.25274286516957
H         0.28880685041828   25.16988245695270    4.41121066069870

