59
CSD_code = MENCEO | q = 0 | S = 0 | Stoichiometry = C28H23ClN2O3PRe | MND = 6
Re        5.24789151817641    2.87906516730044   10.13388906832275
P         7.08408751929385    2.72238698651383    8.57387077062478
Cl        7.04730346202465    3.09217503740726   11.63127758250794
N         6.24119684100643    5.18680995737648    7.66135780554526
N         5.60956125347575    5.22318127479885    9.89114670833562
O         3.07376457795750    3.17888313824880    7.95779162197871
O         4.94683134231170   -0.16394880607841   10.56599557392626
O         3.26994483653057    3.39526301561950   12.45712116755145
C         3.87700607033339    3.02681346346621    8.77133873229153
C         5.02270245826541    0.96746333040434   10.38771860878015
C         3.98319140523972    3.21010092735390   11.58220570612915
C         8.68786907192156    2.13061942717002    9.19233754978474
C         8.66420365279071    0.86117480805625    9.76622024201375
H         7.72228708602615    0.32897619962565    9.82604647298515
C         9.81928957142288    0.30321626711022   10.27444860830675
H         9.79059635233284   -0.67555285715011   10.72975107824282
C        11.01171895129903    1.00744200887578   10.20935363583815
H        11.91656381513310    0.57805836150986   10.61339256383257
C        11.04091373143992    2.26531692267923    9.63425089405160
H        11.96906604169424    2.81677789127306    9.58655042141991
C         9.88386346928129    2.83168011977493    9.12505930965242
H         9.92893988718815    3.81969301607952    8.68908295530239
C         6.99617975294878    1.67404372759120    7.08434140350311
C         5.90520133046932    0.83213682459000    6.91060189554844
H         5.07796252446793    0.88859835811742    7.60829290154321
C         5.88695043457040   -0.07158843629703    5.86312046276764
H         5.04034780230633   -0.72978281300429    5.73639485673452
C         6.95746287762565   -0.13928133850994    4.98834310960185
H         6.94884280055010   -0.85146010468595    4.17658040459498
C         8.04629359229451    0.70166316981947    5.15691525668033
H         8.88358834864353    0.64562984298776    4.47682978518785
C         8.07096165641777    1.60119104662498    6.20445362206121
H         8.93439985691344    2.23701809996134    6.35014449453220
C         7.44618369336551    4.43068087718600    7.95099432640982
H         8.01041325310389    4.93050992815915    8.75283478967373
H         8.05847757353496    4.37393481339342    7.04700241428980
C         5.67082835604749    5.86732250491542    8.71174945135434
C         5.20504632153029    7.18714548182417    8.59409106150015
H         5.22155257920196    7.69328100857035    7.64357969894755
C         4.76664258308042    7.85392888076228    9.71611123529347
H         4.41264519850699    8.87104242155540    9.63756980980194
C         4.83202635322337    7.21795797732949   10.94953459984972
H         4.55054055067344    7.72106523011614   11.85929273426354
C         5.24827501838401    5.90450491894213   10.97812021011184
H         5.31217417200923    5.36884384654945   11.91671789156591
C         6.11503323197270    5.70305030027874    6.31015181650104
H         6.87528189589144    6.47484611777216    6.11039380154721
H         5.12396254730495    6.15419018253304    6.21847362633441
C         6.21671725780793    4.60879216775338    5.27961125504347
C         5.20663975779064    3.66005757037440    5.18276875781985
H         4.37859999969201    3.69177100819229    5.87440288011382
C         5.25252048938791    2.69054541958636    4.19881839684585
H         4.45593977500531    1.96642700923476    4.12349101682267
C         6.31161249336183    2.65399688306411    3.30776268644772
H         6.34193796106916    1.90265281869198    2.53320414892697
C         7.32963748666284    3.58518586806873    3.40901936976422
H         8.15936592175264    3.56023789635010    2.71812751643706
C         7.28180363102060    4.55896177343305    4.39132837107266
H         8.07105800610203    5.29650306097185    4.45442286314379

