76
CSD_code = MENCRU | q = 0 | S = 0 | Stoichiometry = C34H38ClOPRu | MND = 8
Ru        0.13548837386290    5.18925774141175    1.52906894124688
Cl       -0.39550253622863    6.86327821628837    3.12546384701341
P         0.31636943254777    3.57967920858410    3.14059992042249
C        -1.62028198459622    4.75147615011598    1.23593251259051
O        -2.70034846436595    4.48668009012318    0.93884131874839
C         1.99073359020351    6.35371451204932    0.98526889687426
C         2.29677830459951    4.99152221767390    0.86542770363697
C         1.43028520877987    4.42664201398028   -0.12023318270761
C         0.63897229584211    5.48297998930749   -0.64748050888094
C         0.94859667439594    6.67640623016281    0.05232699692034
C         0.45135451659653    8.05621533053533   -0.27126561464164
C        -1.08296974944811    8.08955126443488   -0.28210031710615
C        -1.61206247533090    9.49208085352799   -0.56895210038063
C        -3.13742666353792    9.50279926414294   -0.56667375368502
C        -1.05626238452664    9.97467647414657   -1.90783674768755
C         0.46903672504283    9.94879559932764   -1.89933708258991
C         0.99394468066122    8.53672061886413   -1.63443324020968
C         2.52994672830989    8.42439434298127   -1.73198615964011
C         3.27202775770580    9.44071130565496   -0.86620957134313
C         3.00164679212559    8.53875382752655   -3.18172015830993
C         0.28057447109904    1.90800791913999    2.42481266900142
C        -0.88708995886291    1.15221060528674    2.45545009233525
C        -0.93381570599729   -0.07780159020678    1.82399830997593
C         0.17732615671263   -0.55925457757479    1.15166262733999
C         1.33731134317682    0.19775710579590    1.10133871517183
C         1.38700079984985    1.42908716178192    1.72677443310136
C        -0.90009954557174    3.45496237324926    4.49046129032407
C        -2.03584851861866    4.25542479078977    4.49402977877260
C        -2.95573956167699    4.14115489768892    5.52253893395913
C        -2.74643489789848    3.23220638116842    6.54561762773951
C        -1.61307928059513    2.43330457086268    6.54458285953341
C        -0.69009135880509    2.54262316643254    5.52256017496605
C         1.86792536930017    3.65201076667747    4.09248328996874
C         2.62012417150771    2.53847709498072    4.45204523967420
C         3.77249786973040    2.70117137759780    5.20137893944488
C         4.17499096400655    3.96478087622591    5.60135933867822
C         3.41883952619648    5.07427098165066    5.25768700818457
C         2.26931449060639    4.92042061381358    4.50566508932932
H         2.53561348891394    7.07641538437848    1.57929814893164
H         3.12196721511351    4.48357566321490    1.34895158676466
H         1.51741307303079    3.43478697563737   -0.54364799105202
H        -0.02300175001903    5.39675467649206   -1.49863994276456
H         0.79605933193393    8.74129265571099    0.51141352755085
H        -1.45983324210894    7.40209827734163   -1.04438392176033
H        -1.45208937878546    7.74799649130845    0.69048825484559
H        -1.25776877547246   10.16506126578550    0.21997778902908
H        -3.51372854401266   10.50592742620085   -0.75564787077309
H        -3.51667978958120    9.16674252223101    0.39521590416257
H        -3.52463141489243    8.84002632777103   -1.33829484902208
H        -1.40520843708685   10.99007468199386   -2.11020692239641
H        -1.42977290527909    9.32956808257833   -2.70741320307749
H         0.84212317115385   10.30907825948959   -2.85935598923879
H         0.82694036593072   10.62445846450141   -1.12076080728620
H         0.57804883244062    7.87112450833547   -2.40151317172281
H         2.80146931811923    7.42089927942070   -1.38123032230545
H         4.33741314450805    9.21822725608078   -0.86834659767220
H         2.92393250899845    9.41260867097205    0.16289262899511
H         3.13895269091223   10.44889817830640   -1.25035510366864
H         4.07238980226807    8.35519458242073   -3.24186164627761
H         2.80873877235300    9.53193419732454   -3.57943996520877
H         2.49518107822711    7.81032351863421   -3.81158298369410
H        -1.75554290147558    1.53388870082492    2.97413748153070
H        -1.84182876237294   -0.66174397991816    1.85408041787693
H         0.13884661272979   -1.52046822948149    0.66092560989501
H         2.20247971225501   -0.17262112030554    0.57025144337826
H         2.28914518193023    2.02492729323999    1.68236445018191
H        -2.18470579844178    4.97556921149770    3.69962281880947
H        -3.83545728348602    4.76690133302108    5.52492555392555
H        -3.46417798365061    3.14667501987356    7.34816538499917
H        -1.44849966944909    1.72593552336609    7.34430264758904
H         0.19556681603434    1.92218909802062    5.51959223954161
H         2.31239988553360    1.54832975749996    4.14520568758591
H         4.35792461651856    1.83520940625292    5.47507972085801
H         5.07727875173632    4.08330065733465    6.18313547511666
H         3.72650145497367    6.05941686960085    5.57576051776340
H         1.66500773582337    5.77947340909256    4.23714599830523

