85
CSD_code = MENCOX | q = 0 | S = 0 | Stoichiometry = C34H46N2O2Zr | MND = 12
Zr       -8.36651557433859    1.91525829494325    8.66754074269310
N        -6.98006846842183    3.05586719845288    9.67232103949546
H        -6.51084275614381    2.68819700040983   10.50331881382709
O        -5.10558432009828    4.09040809369886   11.30568713697243
C        -8.48322308257160    0.89197107011732   11.03574190017942
C        -9.36020864137503    2.01016309623789   11.04671650499583
C       -10.41976414214051    1.73956009736496   10.14389088034250
C       -10.19445960348133    0.45291191143408    9.57090842541419
C        -9.00969269857896   -0.08790678553972   10.15048487121199
C        -7.36079915821698    0.64946466391185   12.00935599088007
H        -6.98451945076471    1.58437454942233   12.42146974907035
H        -6.53286537763833    0.11209995180379   11.54522307616026
H        -7.71617098792847    0.04067910441077   12.84608774720354
C        -9.26210112612366    3.15658425761476   12.01686588613537
H        -8.31103644725207    3.68572418308854   11.92688155460673
H        -9.33970225667663    2.78296963243223   13.04046417090997
H       -10.06760385655596    3.86962265117781   11.85954212041933
C       -11.71969866066914    2.48622172460596   10.01627448367796
H       -12.08976646430386    2.47160479783215    8.99167035094131
H       -11.62143194860930    3.52444761487256   10.32399852350383
H       -12.47538419987824    2.01331430275999   10.65028347908501
C       -11.22232680982256   -0.25707064576259    8.72886334058498
H       -11.47606248301186    0.32034740620508    7.83564290186984
H       -12.14301709976137   -0.39267396242034    9.30182028362724
H       -10.88050992747769   -1.24361251919774    8.42254705167767
C        -8.64400831258267   -1.54453003300478   10.26074917521726
H        -9.18354224837511   -2.15549611528291    9.54346898143398
H        -8.91623412331817   -1.89746667987223   11.25964284925987
H        -7.57569196566826   -1.71792537018909   10.14279274213542
C        -6.46688042637257    4.28329317641213    9.38783475474457
C        -6.88973639457999    5.01161897722003    8.26605001482134
H        -7.64552408789483    4.56534276211394    7.62832609362034
C        -6.36657523681565    6.26047546089585    7.98847131829377
H        -6.71503210860034    6.80317302820611    7.12165349582379
C        -5.40505104640946    6.81752716059208    8.81093791351598
H        -4.99401789327537    7.79211376648402    8.59718696696523
C        -4.96057148598004    6.11787662244052    9.92807724882812
H        -4.20840908263039    6.56511152651483   10.56010152996729
C        -5.47751115754331    4.87448439615674   10.21839092915380
C        -4.12879139358148    4.59599592509591   12.17358155498331
H        -3.99093546163362    3.83653395904815   12.94318603855357
H        -4.45138957108860    5.53114435031930   12.64422990655117
H        -3.17694045911685    4.76239666874956   11.65700238073654
N        -9.75367582304289    3.05568921153951    7.66338114623245
H       -10.22272006136228    2.68818272543512    6.83218478322723
C       -10.26689060865295    4.28310829717726    7.94791221653582
C        -9.84357911898932    5.01161764175792    9.06940218364971
H        -9.08744297406527    4.56548375977300    9.70679739391862
C       -10.36649842946683    6.26067095200624    9.34688381340866
H       -10.01800469703909    6.80327160487852   10.21375679194277
C       -11.32831775022478    6.81767118386010    8.52466572681934
H       -11.73966328343617    7.79199502578281    8.73876432786107
C       -11.77299497173624    6.11803791332960    7.40759780499364
H       -12.52568987600745    6.56497496608709    6.77610801991933
C       -11.25613570079956    4.87457102602913    7.11722814678372
O       -11.62846617170338    4.09038213350058    6.03015155892066
C       -12.60637526702599    4.59547765735479    5.16318982810157
H       -12.74476652498382    3.83582118771527    4.39387927727552
H       -12.28462038283993    5.53065587203028    4.69197464939062
H       -13.55774413393385    4.76161578993817    5.68078260238431
C        -8.25031030857997    0.89181959993191    6.29942728653078
C        -7.37311647097931    2.00986424355897    6.28830171738152
C        -6.31355661952677    1.73914391154029    7.19106942410508
C        -7.47123765875621    3.15639857666398    5.31833335501919
H        -8.42220495498946    3.68585388943490    5.40873033177835
H        -7.39411455647474    2.78266638174249    4.29463332456883
H        -6.66532345555695    3.86919638191973    5.47545794470955
C        -6.53908264321299    0.45261730574695    7.76422575873732
C        -7.72393645380705   -0.08808057427952    7.18472455407595
C        -9.37277647689012    0.64942069762719    5.32584586582652
H        -9.74903927558869    1.58438653224097    4.91384212205436
H       -10.20070307932456    0.11194525490788    5.78989882879380
H        -9.01729525904167    0.04076963452539    4.48906121141131
C        -5.51140731430120   -0.25728449077219    8.60654986710904
H        -5.25739925942201    0.32041657019886    9.49945884406851
H        -4.59084005125729   -0.39339234177187    8.03362365060625
H        -5.85344423650753   -1.24356925498484    8.91330310518735
C        -8.08987084325580   -1.54465637323803    7.07473932452771
H        -7.55038180755237   -2.15557855253247    7.79210889004789
H        -7.81767571926637   -1.89773657837861    6.07589306720623
H        -9.15822041052821   -1.71787080058430    7.19269818093200
C        -5.01362095708679    2.48572209861755    7.31885160272163
H        -4.64371175686021    2.47122425099691    8.34351897049073
H        -5.11177623743022    3.52390819350966    7.01097417686525
H        -4.25797042118748    2.01259122340658    6.68498340378661

