51
CSD_code = MENCTI | q = 0 | S = 0 | Stoichiometry = C20H28Cl2Ti | MND = 12
Ti        1.26922093195707    7.75213403767858    5.26311584361502
Cl       -0.14818244613746    8.88762567916749    6.54966502526216
Cl       -0.47116647200483    7.02684010818426    4.05126269092696
C         1.91491985725935   10.00219194537591    4.78855812793715
C         3.09410371426744    9.24598318537928    4.93886359937653
C         3.13894691343092    8.29709493622228    3.89097002801025
C         1.97491578006157    8.44698720403514    3.11758403071434
C         1.21465385469334    9.50125697129273    3.67350840910482
C         1.96969226942728    6.83318536286820    7.29881346562471
C         3.02823606714174    6.64522028027995    6.38272715004644
C         2.58653608141634    5.77496128646531    5.35674948546790
C         1.26695427561997    5.38967079384736    5.65403615079718
C         0.87181665472084    6.05986688377337    6.82881597054697
C         2.04258167938627    7.54079897897686    8.62281504796817
C         2.81834855320300    6.69411229901604    9.65973225148941
C         2.82999239024077    7.44461742448431   10.99295245166410
C         3.48368733482356    8.81531398559425   10.84956493902567
C         2.74023239638168    9.66099174279594    9.81740983597657
C         2.71182850560516    8.91433251206232    8.48457741559318
C         3.38943893159038   11.03214146260081    9.65317557696882
C         2.27594059171393    5.25482013997307    9.77700894459181
C         0.90949585696143    5.17157767211873   10.45456961078154
C         3.26896911330107    4.34747305064844   10.50411777932372
H         1.63730671222143   10.87249692154171    5.36942370619814
H         3.90017661217931    9.47335630478409    5.62277784858478
H         3.98289554087398    7.66561948288828    3.64751505234562
H         1.74442787111001    7.91782663266789    2.20222591105063
H         0.29779167334333    9.90706647870435    3.26469756456670
H         4.04676548168467    6.98386544418952    6.51235445322777
H         3.20150703012644    5.34868691918816    4.57446143972258
H         0.68119029373835    4.65775428349185    5.11381100983038
H        -0.07207784265509    5.92690237023723    7.34363521185476
H         1.02137886922856    7.69813030230554    8.98682149644784
H         3.85283876369128    6.61404766979944    9.30354445302505
H         3.37237331620656    6.86347121472280   11.73986294082947
H         1.80645635522592    7.57930555042330   11.34493236218220
H         4.52428632163872    8.69540760968242   10.53732592533416
H         3.48395344677452    9.32474359312976   11.81555125917161
H         1.70873464808060    9.80253958893569   10.15702699763028
H         2.15722178012750    9.50409599378951    7.74695142497399
H         3.73993824734982    8.78716739709330    8.13435864243075
H         3.39653056260151   11.56755266743615   10.59969724135001
H         4.41790778139796   10.93025393145659    9.31158937694484
H         2.84241455024055   11.62780957263969    8.92602669192843
H         2.17093091825796    4.86943781304937    8.75636178527582
H         0.98436821171346    5.40979175014488   11.51254211010108
H         0.19858302894078    5.85158921908514    9.99351525750066
H         0.51661097135991    4.16112663937982   10.36533779277722
H         4.24595188625217    4.38334409068910   10.02713339648039
H         3.38166077295647    4.64113124750920   11.54479015981176
H         2.91751336026449    3.31848136820168   10.48243465761237

