81
CSD_code = MENFUG | q = 0 | S = 0 | Stoichiometry = C30H44N6Ru | MND = 6
Ru       -0.00001988593279    0.00001969899872    0.00008629766333
N         1.60911627091105    1.10299878967732   -1.28332200061681
N        -0.83768255200931    2.05388542359334    0.72945385466187
N         4.53405639827649   -0.84473268063474    5.83647837560816
C         2.86698745946050    1.41732102837451   -0.60132573536417
C         1.08564977049447    2.34575899178891   -1.87476311340773
C         0.57893974706684    3.40208604027129   -0.90341582340609
C        -0.79335685077465    3.06801949881308   -0.33672089061973
C        -0.20076037119271    2.61519819260738    1.92300224465010
C        -2.27643992699797    1.86874706035789    0.97871205522717
C        -2.67063563017795    1.03767756216862    2.19798488997526
C         1.88206396635933    0.24563641013377   -2.44884753346533
C         1.25142383660976   -0.11445835962624    1.56761397694801
C         1.99162212385345   -0.28025244527609    2.52406878180608
C         2.84337486666399   -0.46527320524163    3.62774420866221
C         2.92558462289792    0.47842589040685    4.66397332689129
C         3.77352391014868    0.23750873487088    5.72298573686412
C         4.46002187887258   -1.73918167571918    4.85881426609574
C         3.64963909352848   -1.60821637072745    3.75194085086551
H         3.30822998155766    0.52545200102910   -0.16887019519050
H         3.58434010467613    1.87107576417152   -1.30005811471270
H         2.68935964643499    2.10883236551621    0.21786264619059
H         1.88031253828990    2.80021716393516   -2.49171089934892
H         0.25695294578404    2.07640910304885   -2.53620035357153
H         1.30125471637345    3.60043313245179   -0.11355140968287
H         0.46934759533690    4.32842943919950   -1.47327769990867
H        -1.41559555881356    2.70875434521646   -1.16161696834257
H        -1.24063470159919    4.00068381544226    0.04959067227598
H        -0.27060573243998    1.92684328624098    2.75854014296207
H         0.85720512135963    2.78413471343459    1.74094198250364
H        -0.67281353417615    3.56790835370134    2.20335347970605
H        -2.75322240407870    2.85695157987489    1.10758314417640
H        -2.68838695643850    1.41826468374513    0.07133250870638
H        -2.57842085581078    1.64278243634766    3.10318043195743
H        -3.73177845665827    0.80236634500933    2.08639099680385
H         2.45531018432630    0.82186763983929   -3.19700428588370
H         0.90912723215980    0.00839332212073   -2.88842265643416
H         2.32986701751753    1.38082477732022    4.62388333897679
H         3.85987566165564    0.94936023395101    6.53650921602670
H         5.09212205171435   -2.61169990729933    4.98196638849231
H         3.63150310633903   -2.37359856153009    2.98634547032468
N        -1.60916124391579   -1.10302251427375    1.28330820805215
C        -2.86702941494734   -1.41734269947612    0.60132008143000
H        -3.30826132090038   -0.52546917363782    0.16887235766891
H        -3.58437631404612   -1.87109333316657    1.30005732647034
H        -2.68939554701403   -2.10884957987743   -0.21786897505640
C        -1.08566453968640   -2.34576553173721    1.87475967766515
C        -0.57894376331067   -3.40208531343455    0.90341309288725
C         0.79333909494831   -3.06798751427353    0.33670444333075
N         0.83764338461388   -2.05385079987790   -0.72947184830589
C        -1.25117645979138    0.11442970538103   -1.56773741390008
C        -1.99150864852650    0.28030444309039   -2.52411088626891
C        -2.84335088675272    0.46526658366089   -3.62771162408095
C        -2.92557363131402   -0.47843057310046   -4.66394404947310
C        -3.77352179041500   -0.23752014715478   -5.72295426137418
N        -4.53405014836803    0.84472036613978   -5.83644507648165
C        -4.46001829942059    1.73916701437460   -4.85878028440353
C        -3.64962163405007    1.60821020819420   -3.75190953862365
H        -3.63148138347331    2.37360641287031   -2.98632740195043
H        -5.09210529096772    2.61169493348092   -4.98194806284428
H        -3.85986366812982   -0.94936007480175   -6.53649070842233
H        -2.32985845274749   -1.38081930062691   -4.62386769032721
C         0.20074782575754   -2.61519828589367   -1.92301835565441
H         0.27059698617686   -1.92684870321120   -2.75855998774368
H        -0.85721808714576   -2.78413851382581   -1.74096195151032
H         0.67280765253310   -3.56791070753978   -2.20335901884925
C         2.27641066008883   -1.86873814853822   -0.97870997369348
C         2.67062731263014   -1.03767830859735   -2.19798386092676
H         2.57841829378414   -1.64278523841024   -3.10317839214159
H         3.73177200702110   -0.80237093862936   -2.08637799378175
H         2.75318904369816   -2.85694656336428   -1.10756825495118
H         2.68835599174984   -1.41825718899864   -0.07132815120583
H         1.41558348903913   -2.70872412201641    1.16159540534101
H         1.24062694554807   -4.00064655839572   -0.04960653777734
H        -1.30126043616668   -3.60044027687246    0.11355475325372
H        -0.46933629153807   -4.32842750761171    1.47327509267556
H        -1.88031745710681   -2.80023107062636    2.49171540606365
H        -0.25696171222314   -2.07640292475176    2.53618997679203
C        -1.88207415582310   -0.24564117414125    2.44882882306787
H        -2.45531116771593   -0.82187037559283    3.19699171946133
H        -0.90913537368848   -0.00840112233857    2.88840233052313

