47
CSD_code = MENHUL | q = 0 | S = 0 | Stoichiometry = C20H20FeO5Si | MND = 8
Fe        4.03634771109993    5.12857462871329   14.06245078019345
O         6.60970028509285    7.55086814041797   14.23634404539762
C         6.20643324063573    6.42751428244306   13.99717952935121
C         6.16436452410493    5.22374030186407   14.89613092954197
C         5.96637964538852    4.10199595557196   14.04152821857781
C         6.20335511036665    2.61620054356967   14.04633001796788
H         7.28011580250336    2.42034646323750   14.18782910638841
O         5.46097576768236    1.97699226892655   15.05919675729202
H         5.59682550754310    1.02468342916632   15.00375915099198
C         5.73315227778980    2.19047850334094   12.62834202899372
H         4.69834550732463    1.85401941741081   12.72529632435248
H         6.33100531708078    1.37325573524410   12.22672274242813
C         5.77499756660517    3.44108721383842   11.73403142324495
H         6.74026221613050    3.52412467698250   11.22562347530168
H         4.99345709640677    3.43556054227498   10.97678699903700
C         5.66313690257668    4.55608541717825   12.72575328130221
C         5.59613114223496    5.96955771373872   12.72126378070910
Si        5.49511294397435    7.17810716122188   11.27196277697128
C         7.27627743854250    7.71684675238531   10.85701077992358
H         7.74790647454106    8.14845280373859   11.73399227479583
H         7.28598881622865    8.46480500598478   10.07016623201819
H         7.88796633613561    6.88151452150776   10.52718640159951
C         4.69478481660979    6.28780900259835    9.78602422456667
H         5.33879284127859    5.51564192462286    9.37793480957652
H         4.49248479631444    6.99521922588422    8.98926725218623
H         3.75075839297736    5.82640111968108   10.05844983271043
C         4.41010303131144    8.63546652743736   11.83300791172006
H         3.39452466032935    8.31183182190725   12.04711015998071
H         4.35901348194915    9.41580197031698   11.08019139263183
H         4.81568976882329    9.07352371597888   12.73940691606975
C         6.65128568281890    5.20392465018412   16.27440521533909
C         7.46612676826888    6.23088496271498   16.75419087607828
H         7.72247294142466    7.05233879656413   16.10496691845486
C         7.93957107201053    6.19748652082688   18.05240954881254
H         8.57193940780543    6.99707924800425   18.40986278537388
C         7.60649713895442    5.14979637291193   18.89407052780738
H         7.97628288640600    5.12871054584017   19.90888484750446
C         6.78758521555478    4.13231659163493   18.43008952827846
H         6.51448216867114    3.31750163373097   19.08513578393536
C         6.31020915832895    4.15806365433087   17.13486295346289
H         5.65805058117409    3.37447890942883   16.78205130502046
C         2.74957262330700    4.86609755860915   12.89200481273574
O         1.89033237799408    4.70782436211553   12.14992631022451
C         3.50459529284260    6.67709255472374   14.81580687690208
O         3.10301721509364    7.62821145918717   15.30028853561979
C         3.24019255559397    3.99928384852450   15.16391632982739
O         2.66569749417058    3.30810154348405   15.86874728880108

