47
CSD_code = MENHOF | q = 0 | S = 0 | Stoichiometry = C20H20FeO5Si | MND = 8
C         6.06205821230794    6.25231453373669    5.41808637220150
Fe        3.77696997149910    5.21887615249706    5.41732786118547
O         6.57925653295500    7.31353962559559    5.13414430853097
C         5.45372322872856    5.86588755711589    6.72152138298323
C         5.36274019213255    4.45424171568180    6.72058672942763
C         5.30003415859285    3.32500791647217    7.70084995807319
H         4.54082530670357    3.43864700001564    8.47160153738001
H         6.27569009966513    3.23383751446813    8.18627943385197
C         5.03366735386117    2.11450626922986    6.78641782318545
H         5.43255513286992    1.18784862965917    7.19913353147532
H         3.95842249129108    1.99941633503757    6.64021984976483
C         5.68270485963328    2.45274018445071    5.42211593413932
H         5.14488580314607    1.97081659958182    4.59174171473663
O         7.05136662207816    2.10415198619998    5.37103262554721
H         7.14162904702488    1.15845460635336    5.53148281663341
C         5.58911479988289    3.95972516887487    5.40245852866664
C         5.85919878792778    5.04934131529680    4.53398264786113
C         6.30627567587246    5.01746459547301    3.14460475048633
C         6.95303100632860    3.89978907620389    2.61741641936265
H         7.14390311609757    3.04781457265046    3.25009722014425
C         7.38712120238548    3.90116894498384    1.30522607991980
H         7.88996142714994    3.03136253964187    0.90744666880098
C         7.18583739865766    5.01138238689768    0.50224276495309
H         7.52488336544661    5.00745137361177   -0.52330030580169
C         6.55346677009425    6.12976487388187    1.02171108164418
H         6.39985279783109    7.00043162726201    0.40122950060377
C         6.11475601395379    6.13454724865748    2.33084398498115
H         5.61717418459772    7.00286196759203    2.73539550037382
Si        5.53990205702905    7.07711429116297    8.17059778583119
C         4.55394713092231    8.62190370287813    7.66005553460024
H         4.95476109023987    9.03224846852850    6.73853751101734
H         4.60002688404637    9.39892073217171    8.41655936320429
H         3.50637356090932    8.38508199942028    7.49014833068840
C         7.38011548174975    7.46077769433264    8.47882639655820
H         7.93392419541885    6.57713622032117    8.78368524812136
H         7.50037080769109    8.21134817938221    9.25410801028407
H         7.83695704421921    7.84114474815809    7.57064034941135
C         4.74211266827285    6.26187076849808    9.70047424915966
H         3.73716896129606    5.91007122378589    9.48837301318137
H         4.67068339578265    6.97780637612833   10.51204181539444
H         5.32225912383544    5.41910796239765   10.06194411336145
C         3.38568942704703    6.85004031018235    4.74851573197716
O         3.04807854696012    7.85495687289938    4.32749916578474
C         2.50153865075672    5.04197217967967    6.62212163174315
O         1.65578310970814    4.94846609584676    7.38922191303957
O         2.30562242018983    3.57261335010550    3.52695593757722
C         2.88507988521056    4.21672650699862    4.27589717795223

