83
CSD_code = MENJAT | q = 0 | S = 0 | Stoichiometry = C40H34FeO8 | MND = 8
Fe        2.95650470343215    4.58762364068716    4.31333997455349
C         3.49803262961590    2.58438572485534    5.85231887118669
O         3.13175502398159    1.43837211240930    6.01774977053564
C         4.48605389088152    3.10439456844420    4.86834214576342
C         4.88399105865150    4.40866142869704    5.29205826199601
O         6.16651394030276    5.15356296572002    3.47987269120540
C         6.11374127687842    5.16951259080695    4.89236966934658
H         6.99888810469393    4.65016493615832    5.29892403532381
C         6.04641128815293    6.59127493197761    5.47157647857997
H         7.01196765035643    7.08584951386596    5.35069889716328
H         5.29756021668725    7.15400448591899    4.90745397154611
C         5.66793012133941    6.55164229560487    6.94809425606822
H         6.31241391201096    5.84680935200798    7.47882391967083
H         5.79860329981462    7.53829743695919    7.39738404544653
O         3.89919059731396    5.79561910140060    8.46596846836696
C         4.20971241156673    6.09750986729511    7.12518054180852
H         3.54017968102074    6.89796720374763    6.76916809917342
C         3.98646428038127    4.84489084406171    6.31211046754798
C         3.03435431957123    3.82528732324190    6.55392915337624
C         1.99113669208036    3.80654678369473    7.57231128253032
C         1.86055012116265    2.70510859176698    8.41236564500791
H         2.54623593451875    1.88150859353905    8.29735466871668
C         0.87310327525286    2.66202692585072    9.37789487750573
H         0.79057027010762    1.80443428699817   10.02772826762568
C        -0.00664451825823    3.72000679483543    9.50491675582076
H        -0.78062315107131    3.70036496648903   10.25742138224219
C         0.08864877254098    4.81598372494893    8.66407860850622
H        -0.61738512700543    5.62228645730638    8.78233644065314
C         1.07964120722153    4.87084080455440    7.69468874642762
O         1.22328435336405    5.89706752765838    6.80035922636456
C         0.28472237049876    6.94621810723268    6.85657352280223
H         0.56334461319133    7.64630572035898    6.07110031364931
H         0.31523840143987    7.45694102287805    7.82461605655209
H        -0.73090096164442    6.58466853489005    6.66911034711131
C         5.24304912947028    2.18219107473925    4.00402426269661
C         4.65466819822069    1.63994382092080    2.87101948909771
H         3.64971793690309    1.95013200760827    2.61843913331461
C         5.33219663858323    0.73493481248123    2.07277669008752
H         4.85735543163382    0.32714556748906    1.19381866201715
C         6.62001829667978    0.36412837067780    2.40909336815697
H         7.16643409080439   -0.33358299717929    1.79225898487076
C         7.22279115766603    0.87970633728582    3.54491093810561
H         8.22579357501144    0.56814541513803    3.79124445460243
C         6.54198980219308    1.77822020239545    4.35568056179702
O         7.05142664677737    2.31231271611687    5.50690083045459
C         8.27900364154865    1.82326751249750    5.98676036240646
H         8.43730897776418    2.31451997821287    6.94627188778117
H         9.10710215610300    2.07239665492624    5.31335820123986
H         8.24859104778924    0.74017065305496    6.13854712730348
C         7.40900987915767    5.51310696248271    2.91483927557527
H         8.21904858605729    4.96072189088813    3.42354626965217
H         7.60188674854584    6.58844274764680    3.04335577474638
C         7.40728593988954    5.16139745679318    1.45107602220307
C         7.94309930686491    6.02771461078356    0.50869917246987
H         8.35373556051969    6.97714573801091    0.82302374461774
C         7.95589152229620    5.68070354015307   -0.83119252455713
H         8.37693874294542    6.36050615942174   -1.55754309886831
C         7.42423168009674    4.46993077169536   -1.24045246206281
H         7.43021739938264    4.20305423846530   -2.28705349675207
C         6.88251625029014    3.60568533193758   -0.30397998006324
H         6.46269993559270    2.66033074933606   -0.61439434983193
C         6.87849887643051    3.94689944074156    1.03575896972355
H         6.45407288281560    3.27960699141244    1.76840752774844
C         3.50536810497865    6.88516954026871    9.26917595089607
H         2.97840643175279    7.63680297194721    8.66305728348579
H         4.39230847805483    7.37427787157741    9.70903428127543
C         2.60233845154132    6.39366954377647   10.37023672168540
C         1.55579620384100    7.17999313618887   10.83163556337441
H         1.38695603890868    8.15759587051958   10.40003352248159
C         0.73028665423408    6.72232068876457   11.84339230082908
H        -0.08184541892831    7.34176863336560   12.19568336379260
C         0.94112011499082    5.47194452226151   12.39797793440214
H         0.29395909715072    5.11370761238317   13.18498861730544
C         1.98171160740063    4.68295551443461   11.93877449474742
H         2.14832746648546    3.70558485272050   12.36627652150306
C         2.81081870353997    5.14212729316515   10.93210773330253
H         3.61556022605090    4.53016843569577   10.55787186331284
C         2.23921713687616    6.19580640075936    4.21994790454838
O         1.79443766730124    7.24231445827241    4.06630297576663
C         1.53897240534897    3.53301580315364    3.95322598227083
O         0.59780767183095    2.93999189829089    3.69613593323437
O         3.82649375550174    5.01655015795208    1.57655352088388
C         3.53298850502398    4.85131687151454    2.66747187217160

