56
CSD_code = MENJUN | q = 1 | S = 0 | Stoichiometry = C23H29ClN2Rh(1+) | MND = 8
Rh        1.39505818935448    2.93419502589593    2.72912027943814
Cl       -0.70961084851969    3.04644387551444    1.70891480407185
N         0.48393217629360    1.38603822355436    3.79714231639174
N         1.73706716779648    1.49822497041002    1.24366986544844
C        -0.51909646670060    1.83216048984507    4.55735634255076
H        -0.60217339326764    2.90502635414315    4.67354644481423
C        -1.44146779992867    0.99966871939252    5.15785314734815
H        -2.23279433527179    1.41293722743062    5.76080075850657
C        -1.32742450454516   -0.36259725873883    4.94103320478045
H        -2.03583434305996   -1.05547251132132    5.36709528204870
C        -0.28117865942661   -0.82359064692719    4.16233473316331
H        -0.18402612054822   -1.88130865954008    3.99549421262712
C         0.62817200781425    0.06937793983836    3.60194967418501
C         1.82460821015715   -0.41800165068155    2.78794974663884
C         3.11604549614229    0.09324861882093    3.45471571775139
H         3.11808306869069    1.17930451453432    3.51040350811761
H         3.98001425404700   -0.23230996020370    2.88103839700434
H         3.19490697167092   -0.31155341378987    4.46048232662484
C         1.91653699014307   -1.94692206531650    2.76682487846301
H         2.01775271860520   -2.31993239902670    3.78300533483674
H         2.80606159584211   -2.25082945099298    2.22055180484894
H         1.04853115702442   -2.41199420225551    2.30828644215467
C         1.73218587946791    0.16662212770553    1.38063374535791
C         1.67293199164236   -0.65135126999808    0.25557367370437
H         1.65564961488300   -1.72167731717273    0.35625398728008
C         1.63270578798890   -0.09796598061047   -1.01163012628436
H         1.57942780538672   -0.73304945421948   -1.88187770955268
C         1.66038198671917    1.28049273998455   -1.13406332933608
H         1.63335394217577    1.76434342690641   -2.09619006907539
C         1.70380647473084    2.03420731133516    0.02114074493274
H         1.68957479079819    3.11512297609387   -0.03608519337413
C         3.28172547288952    3.79014848844801    3.62630618700872
C         2.15950248405582    4.17513175415380    4.43064751063185
C         1.25756975254838    4.91797032901311    3.61291423747538
C         1.84484777767883    5.02711620677549    2.29117087721264
C         3.08785690765480    4.33447058891434    2.31023481210056
C         4.57411715023761    3.24916009093280    4.14456343997952
H         4.42845355091321    2.61790364528239    5.01745449743004
H         5.20552451513654    4.08812726312619    4.44324654594407
H         5.11045353052690    2.68643395871094    3.38443118413790
C         2.05527673047023    3.95152963026664    5.90296386855643
H         1.03865446392704    4.08645329847881    6.26237703244703
H         2.69227328366492    4.67617883559696    6.41242654759322
H         2.39411001197624    2.95555770195096    6.18210367903070
C         0.04946214504651    5.68110473085180    4.04489753341927
H        -0.78718482032866    5.49581465981264    3.37272391485115
H         0.27290590358177    6.74812269622281    4.01024379044884
H        -0.24796248126874    5.42940715254159    5.05967532199101
C         1.29876165101911    5.90016298523712    1.21202501900284
H         1.86691790652010    5.80815913001777    0.29015199179520
H         1.34290618859370    6.93927571817920    1.54015677676466
H         0.25608258479595    5.65977192227443    1.00913811766519
C         4.11947680076350    4.30666234694834    1.23094037624248
H         4.55786846836637    3.31622173711521    1.12007544545544
H         4.92085078816781    4.99780462059080    1.49622279930042
H         3.71156742695681    4.61665220794817    0.27278354804801

