58
CSD_code = MENKOG | q = 0 | S = 0 | Stoichiometry = C28H26AuPS2 | MND = 2
C         0.56368215834814    5.60751518923886    5.13363521015923
C         0.36776124001306    4.87373610493377    3.86960288973735
C         1.45583927840891    4.62223772994304    3.02789021989456
C         1.24403521663635    3.93797210982553    1.83998495711607
H         2.08605521349314    3.73911018772887    1.19131683855490
C        -0.02177122591311    3.51968501319189    1.46135095313720
C        -1.09415768627916    3.80337096567992    2.29837603059406
H        -2.09086811929903    3.50473874020221    2.00094169582211
C        -0.92170545800803    4.47612312602918    3.49723312151775
C        -2.08606294254525    4.78199541926846    4.38699042417854
H        -3.00822502019611    4.37498667806317    3.97888802532990
H        -2.19463542026699    5.86075793283257    4.49692307690046
H        -1.92732430696115    4.36942739012003    5.38394002913151
C         2.82127825817393    5.10790446406325    3.40481050529726
H         3.56701239631912    4.76376802194708    2.69207283175595
H         3.09547039984346    4.76343879312092    4.40232636308148
H         2.82997911700037    6.19774544618465    3.42699351417171
C        -0.24801479836130    2.78797200261525    0.17240989413876
H        -0.72267067550554    1.82409261975946    0.35691875373085
H         0.69223167989668    2.61902373348674   -0.34643455534670
H        -0.90569735369373    3.36413942615623   -0.47766939473212
C        -0.24467671513294   -0.28149739753951    4.06843834201735
C        -1.21732163644329    0.51185339720513    3.46202968403840
H        -1.00510288083835    1.55798431984297    3.27621096785960
C        -2.43111544432266   -0.04086160362992    3.10332138550455
H        -3.18289051853438    0.57130184814694    2.62791111261125
C        -2.68541313502798   -1.37932875807385    3.36352791748919
H        -3.63631290066616   -1.81038492189196    3.08841637513824
C        -1.72583608665187   -2.16293885031560    3.98304998496455
H        -1.92958634986699   -3.20278637367509    4.19165417252087
C        -0.50342419103829   -1.61989065678892    4.33986630750190
H         0.24441474423495   -2.23045766009048    4.82640643367027
C         2.26802798242476   -0.69421983390496    5.39093460613230
C         2.26956117075366   -0.65678691858518    6.78175440207838
H         1.71465313832449    0.12181605367800    7.29026769703631
C         2.98036392861936   -1.60345441373585    7.49660798555816
H         2.98167379777722   -1.57467666767556    8.57577029809311
C         3.69483557783999   -2.58288574505583    6.82542052603168
H         4.25322583081161   -3.31945115612998    7.38329927922649
C         3.69995003113319   -2.61751084333995    5.43944993594733
H         4.26058599583909   -3.38033757457064    4.91973055945831
C         2.98911067817939   -1.67655935894011    4.71767942581416
H         2.99068212029730   -1.69701435006577    3.63621481404855
C         2.18295448470944    0.74148705798213    2.94159333557847
C         1.72757671110941    0.23837337312324    1.72978303288999
H         0.79547349023880   -0.30739599972985    1.68465907817856
C         2.47529217554648    0.44184313352969    0.58288142774057
H         2.12325894623557    0.05148773240991   -0.36076692770108
C         3.66909504812393    1.14131300313140    0.64153567677382
H         4.24590052793348    1.29858257704616   -0.25782646301775
C         4.12302413031030    1.64587848169196    1.85110176471601
H         5.05187330911500    2.19498871033933    1.89519763251401
C         3.37976206071038    1.45206530104670    2.99831660870184
H         3.71336461236643    1.84989014050142    3.94865754924770
Au        1.04769034539872    2.54176702962758    5.57925701743462
P         1.29690082967257    0.55817394507988    4.51081434458222
S         0.44807373632367    7.24109537063351    5.15084761199928
S         0.89304250238490    4.66889651441408    6.53858471381193

