44
CSD_code = MENLAS | q = 1 | S = 0 | Stoichiometry = C13H22ClN6OZn(1+) | MND = 5
Zn        0.07355382612276    2.34196400139840    6.09103918087535
N         1.34944036980959    0.72264418329079    6.43884926698643
N         1.93616203349363    3.37032212740399    6.68408087475462
H         2.55436183047709    3.37006336296352    5.87248952708867
N        -0.33609502313746    4.17553131769459    4.96937246070152
H         0.27387117494133    4.21570442452846    4.15296373586639
N        -1.16720689694802    1.60775627266317    4.58110900034313
Cl       -1.10757279987801    2.64003444231852    7.85531328610199
O         2.07122198256824    5.47910117596529    4.83606412879043
H         2.91741589786827    5.93260546121498    4.90673544765652
N         2.44026310014549   -1.08093546593698    7.00338688189154
H         2.70816450643648   -2.05091484662047    7.07168024456974
N        -2.62415882951999    0.72859153012066    3.21537811899869
H        -3.14695456962669    0.04416238400810    2.69047089281046
C         4.21148919770121   -0.25115447877546    8.56229315417228
H         4.67030526375842    0.70096705778046    8.80953885851645
H         4.95678319858754   -0.89086556555942    8.09302605870713
H         3.89222893521512   -0.72585653709023    9.48956865510356
C         3.05454173700924   -0.04581846596746    7.65898919636558
C         1.42339830661055   -0.57812030577784    6.28599615037903
H         0.77381576633930   -1.16786830254186    5.67284897153415
C         2.35774507206800    1.07587863964010    7.29224571330534
C         2.50265449143183    2.49918601869719    7.71108728410487
H         1.92140959941957    2.65424325773853    8.62735995776458
H         3.55417029804253    2.73442220613011    7.92651966661922
C         1.82610073856809    4.75135091641643    7.14691274261722
H         2.80189988863081    5.11657576581362    7.50200020025395
H         1.11965932162148    4.78358879252832    7.97807321728016
C         1.32291752188686    5.67103250120187    6.02320121236630
H         1.41524617976442    6.70781894121968    6.37469136552263
C        -0.15253571265890    5.43647898023684    5.68508738511850
H        -0.73402548649839    5.40327860306099    6.60814819746378
H        -0.50449046769918    6.27645754075868    5.07094279894332
C        -1.71766380840714    4.01552725325727    4.51890173779774
H        -1.98296973726864    4.72741974707358    3.72604182055395
H        -2.36732335928384    4.20454263182533    5.38156758058713
C        -1.93515110622091    2.61313660956643    4.06222018573515
C        -1.60530761095284    0.48857108784085    4.05549858807133
H        -1.21283382296639   -0.48672755294709    4.25695702361049
C        -2.85821362194677    2.07915080551432    3.20138942345284
C        -3.93461268305742    2.69127711405058    2.38702580380504
H        -3.83194377533188    3.77172049372495    2.37860226272432
H        -4.91259332261387    2.44487970467435    2.79920905282183
H        -3.89666760450197    2.32537616889555    1.36242268726495

