39
CSD_code = MENNUP | q = 0 | S = 0 | Stoichiometry = C8H24Cl2RuS4 | MND = 6
Ru        4.21558306430446   -0.00004259238152    7.37297195457130
S         5.37221263872334    2.01602768630245    7.95251732802558
C         6.15203484506724    1.74889356456461    9.56424325382256
H         6.84316253795700    0.91845798492637    9.44839400794470
H         5.38809444847926    1.49284892953717   10.29403279363291
H         6.68121344272086    2.65507358637418    9.84617619623366
C         4.12437274825711    3.23453494169255    8.43774670919455
H         3.47026944232458    3.37647600291004    7.58170990472424
H         4.62894068679372    4.16159662675590    8.69589401817938
H         3.55305734143164    2.84730242197943    9.27757065741449
S         3.07810190561233    0.04804632707020    9.48071373070008
C         3.32813506503632   -1.56308803427405   10.26740756872274
H         4.39985600811194   -1.69164599174041   10.39253127838741
H         2.93694287987421   -2.34321372387524    9.61929820552147
H         2.82488403632046   -1.55898580767194   11.23043825692189
C         1.30384075701810   -0.07265998584626    9.14222564448381
H         1.03850527614562    0.78582109191145    8.53125592158051
H         0.76979398665796   -0.05282466677540   10.08833422498039
H         1.10479063514359   -0.99010941821436    8.59414144844051
Cl        2.45510016847052    1.28956069636980    6.39418505094444
S         3.05887475302175   -2.01627720402369    6.79393005451277
C         2.27975982795858   -1.74859436699055    5.18194037382633
H         1.58884773660355   -0.91795772979571    5.29765948698130
H         3.04396146542067   -1.49265745612299    4.45238109778012
H         1.75037940942983   -2.65452661814991    4.89962538418037
C         4.30680652532600   -3.23473249299973    6.30875174530845
H         4.96076687574564   -3.37671216045079    7.16488620942225
H         3.80223489469382   -4.16175705014924    6.05045641092971
H         4.87828208491116   -2.84749019503868    5.46903848740376
S         5.35330076295050   -0.04826031743216    5.26560537679939
C         5.10269883861042    1.56270912443691    4.47874253568081
H         4.03101448761834    1.69061672499437    4.35272489311590
H         5.49285987783407    2.34309328794467    5.12715490250815
H         5.60674122106425    1.55890928641266    3.51613214335005
C         7.12750833690399    0.07295059354843    5.60407818068000
H         7.39315317499093   -0.78564952767515    6.21473058539593
H         7.66144224075839    0.05365688055975    4.65789357222806
H         7.32618785740593    0.99030133371493    6.15245352546574
Cl        5.97468771431248   -1.28969175239244    8.35292688000629

