59
CSD_code = MENQOL | q = 1 | S = 0 | Stoichiometry = C24H20LaN6O8(1+) | MND = 10
La        9.78509150833048   11.63655830662941    9.11369510511206
N         9.22721236723012    9.36139976385049    8.11376408227803
N         8.16789559706800   11.67030561984113    7.11729361200959
N        11.23754664113227   11.74545323752718    6.94656398803596
N        10.39161609645294   14.02962019912149    8.19465715178195
N        11.87398567542905   11.36803519289723   10.42608700438049
N         7.25294150751178   12.06500173938751    9.52480401762618
C         9.75181066875592    8.23485132939769    8.56395043368230
H        10.74482707509232    8.31022415076578    8.99095393374530
C         9.09651131168036    7.00083160967055    8.49857671675253
H         9.57535390928715    6.11800883206909    8.89079257073884
C         7.84381559610898    6.94080427484043    7.93919833369344
H         7.29882862516129    6.01029904223300    7.88046180030452
C         7.26395261704149    8.11508296945215    7.42923586583566
C         5.97232992450706    8.12900082473923    6.82818522700308
H         5.42662135364372    7.19932633747439    6.77379693790805
C         5.44211908533794    9.27694050566482    6.34545842190739
H         4.46062533040067    9.29042216742415    5.89705021321214
C         6.16250291625825   10.50364972851770    6.41802764478371
C         5.63964054179540   11.71211172227116    5.92965778659459
H         4.65229851529458   11.72724784355989    5.49342583233817
C         6.39660832966319   12.85416285554213    6.02116746959427
H         6.02909383592119   13.79938732603001    5.65619611538616
C         7.65555513006682   12.78224558680912    6.62078902962186
H         8.26966132449385   13.67037540417924    6.71232538099429
C         7.44460043672596   10.53347449489472    7.01145169532439
C         8.00515675523877    9.31400411862577    7.53686618319455
C        11.63211744601456   10.65986521287646    6.30719368496571
H        11.06638416805121    9.75744923001121    6.49973126071110
C        12.71438813373751   10.62783076342047    5.42319736929872
H        12.98565623060840    9.70342072203981    4.93921144179217
C        13.42077816792405   11.78299168361397    5.19745027296395
H        14.27174485349037   11.80173631862018    4.53282171048451
C        13.02211385640815   12.96314576132289    5.84649409853512
C        13.70573396719922   14.19782782313849    5.65335343225786
H        14.55476597769162   14.21051992114329    4.98704003335794
C        13.30284667745323   15.32125810328315    6.29087919413020
H        13.82198134229334   16.25702163351354    6.14993796240804
C        12.17937461834985   15.30125736393190    7.16636150865236
C        11.73696289133947   16.45478898635709    7.83585049594795
H        12.26315070434667   17.38720924913403    7.69461996510612
C        10.63885220629691   16.36969262489051    8.65438039798074
H        10.26695198064160   17.23320527744164    9.18219671502246
C         9.99635220357117   15.13545331860826    8.79818309968727
H         9.11111498414793   15.05205193725093    9.41591831542632
C        11.47111075514275   14.09648849253478    7.38567361261200
C        11.90848768770336   12.89545039956512    6.71761478813324
O         9.77062176320647    9.73551442673638   11.08532014683859
O         9.62093704953045   12.41696075607101   11.74954230482016
O        11.69273571933361   12.54410058902259   10.10017473477128
O        11.79878575762533   10.51092730992747    9.54689530247536
O        12.08353664892913   11.07560562222693   11.57443736016402
O         7.70488124730628   10.97062634465930    9.86993068780176
O         8.02294787916928   13.03362162061641    9.56723925400180
O         6.11919790321281   12.19009923695845    9.17407681718612
H         8.95282055270557    9.65987044892821   11.59486357047014
H        10.50448926769056    9.66021757311511   11.71733031092091
H        10.44385802035545   12.39567378542985   12.26604744793797
H         9.16481666289090   13.23159228021676   11.99830014929339

