23
CSD_code = MENSUU | q = 0 | S = 0 | Stoichiometry = C8H8I2N4Zn | MND = 4
Zn        1.29534073201142    3.24096104947672    7.37197311927005
I         3.19726575747874    3.36201771338383    9.00792864159792
I        -1.08079098703137    2.50829521806359    7.12096130869974
N         2.25057082235942    1.93304676206410    5.80501918315070
N         3.17490385370240    2.51020243602873    5.08556307740391
C         3.98657967214581    1.78558507830494    4.34684361185060
H         4.72577708615504    2.34292877583576    3.78935264609080
C         3.91262560392823    0.39347182611614    4.28359102142170
H         4.60044463731629   -0.17353181250167    3.67620936168064
C         2.92164260553533   -0.21044792949722    5.02940328218557
H         2.77948065032293   -1.27957258282643    5.03886535823892
C         2.10023829362512    0.62110763166036    5.78827239783657
H         1.30023080383553    0.22303298940146    6.39678481826914
N         1.54378684886257    5.05238298309335    6.26515537472003
N         0.84556917718109    5.75806784746947    7.11698150610748
C         0.81300809469754    7.06876711705577    7.02287427083122
H         0.21370946816185    7.57271905439843    7.76695172194927
C         1.50928371417718    7.76507864440788    6.03321659693711
H         1.46800209731094    8.84174599383639    5.98003176919140
C         2.24991777920365    7.01595918333006    5.14171836446759
H         2.82385409652529    7.47196699863392    4.35002720329335
C         2.23420716006439    5.63145552484110    5.30382403193454
H         2.78855203243524    4.95905949742684    4.66565133286204

