19
CSD_code = MENWUA | q = -1 | S = 0 | Stoichiometry = C4H8Cl5HfO(1-) | MND = 6
Hf        4.91738447189767    5.91235764438767    3.30956074688024
Cl        3.94956741386254    5.72088997052723    5.44495330931520
Cl        4.08401525475259    3.81967435027227    2.47632446591138
Cl        3.05127851792348    7.02522973377231    2.29208153981535
Cl        5.95215738565068    8.04375550402919    3.70106501524094
Cl        6.98703694813194    4.83984570905462    3.87485844921400
O         5.83553368125888    6.09753528504234    1.27845984858653
C         5.14925673087808    5.85772430436204    0.03503489689598
H         4.41867044728554    6.66412856812010   -0.10646787719820
H         4.62020667811616    4.90268182622111    0.11896349025493
C         6.22597380397290    5.86929730099410   -1.04628639915239
H         6.65416065537304    4.87359277038489   -1.16547207889918
H         5.83679886071903    6.20669600354870   -2.00425731829201
C         7.26126262793926    6.81966146590098   -0.44884470123413
H         8.25519297411188    6.69392936113554   -0.87202133266665
H         6.94291736114282    7.85446793463276   -0.57710237321484
C         7.20912428970308    6.43452561881798    1.02441423951908
H         7.83002130414033    5.55381393603199    1.23515401360561
H         7.48364059314012    7.24439271276414    1.70748206541814

