75
CSD_code = MENYIQ | q = 1 | S = 0 | Stoichiometry = C38H27F4IrN5(1+) | MND = 6
Ir       -1.85392638775516    6.66084731000221   13.86217338882964
N        -3.72767790613012    5.32687817562894   13.92513554776806
N        -1.39154888359406    3.83455168712557   14.94727478048540
N         0.45471676091046    4.44521027175928   14.05244641731234
N        -1.48375479720013    6.32516704702387   11.89230015701601
N        -2.23027849776149    7.25866255915397   15.77290424289902
F         1.82200636712713   10.44114855617700   15.08505638102011
F         1.46332215529734    9.14384934807193   10.61636737861721
F        -4.73281739039070   10.26239707089790   10.98157051343307
F        -5.33455909642288   10.19118379588532   15.61112641638524
C        -4.75068426190158    5.66440631654987   13.14167278278545
H        -4.63877772098920    6.57873509352844   12.57799034239253
C        -5.90824293640200    4.91474045178854   13.03656217261738
H        -6.70663132756752    5.24393708456712   12.39228876066382
C        -6.01098023690708    3.74513183031172   13.77200709689668
H        -6.89394113632661    3.12802512080374   13.71798405292096
C        -4.94679037690297    3.38579381160540   14.58160645710090
H        -4.98706366673496    2.48302244933974   15.17048974322759
C        -3.82511179353964    4.20408322020994   14.63715751185142
C        -0.77527644270293    4.89239359848925   14.36973789236464
C         0.60145445565468    3.13112937605833   14.40459758751078
H         1.50740672925687    2.58760555851500   14.23386694707874
C        -0.56368673944933    2.74302558692429   14.97059530311292
H        -0.85596785723723    1.80098877103826   15.38572196468330
C         1.51711555392856    5.21859657954626   13.46477871621748
H         2.46143945893620    4.89487457116581   13.91704610521131
H         1.35669038020528    6.26861091904217   13.72299394716226
C         1.63000285404546    5.08400323510145   11.96253945982502
C         0.95201758637116    4.11150517183234   11.24448044357884
H         0.29226738398856    3.41794993145174   11.74651209472507
C         1.11878391594910    4.01317553819562    9.87261726058772
H         0.59172529912837    3.24600094335840    9.32567339321333
C         1.96166555665204    4.88529815186268    9.20855289426752
H         2.09415232067110    4.80278999345813    8.14113714179649
C         2.64226888332174    5.85953715257061    9.92105580040339
H         3.30287913522259    6.54277093341305    9.41097215497129
C         2.47830462397216    5.95618255219767   11.28943921043769
H         3.01521823307622    6.70895213032664   11.84732363185351
C        -2.69256295210570    3.84898900536530   15.56914347609831
H        -2.69212519236633    4.57824258118572   16.38960606457383
H        -2.87327497077998    2.86050699158910   15.99641963978685
C        -2.10921130672040    5.42075444804486   11.14024270789614
H        -2.75683718857906    4.72305140214988   11.65326134123946
C        -1.97081895643420    5.34423144276513    9.76972116300741
H        -2.50897308074608    4.59552286965039    9.21216922613285
C        -1.13687027641105    6.25633429280375    9.13866611231743
H        -1.01927862459869    6.24738131679576    8.06704361752125
C        -0.45479912779140    7.17622883986390    9.90885789361348
H         0.20077859799523    7.88408355131022    9.43476578978165
C        -0.62790487539375    7.19110258219751   11.29392433469446
C         0.04350534338102    8.09261291342907   12.21965337830071
C        -0.35029968319301    7.97290610515188   13.57588476715566
C         0.26338400520847    8.78022908890732   14.52528046502879
H        -0.00141299130957    8.73099336569215   15.57002174789457
C         1.24313901589528    9.68087713552671   14.14560987961914
C         1.65114172087238    9.81379181809517   12.83028451414423
H         2.41510683978679   10.51835021508155   12.54686674796051
C         1.04118441666289    9.01287558776116   11.88676184760255
C        -1.60516200656620    6.80373286885514   16.86219379801319
H        -0.82819876528805    6.06817531691823   16.69968267245382
C        -1.88580494018571    7.24209073201243   18.14009479676352
H        -1.34634270969754    6.84081793692152   18.98220115754492
C        -2.86630316608022    8.21173555367718   18.30317128318184
H        -3.12054016820441    8.58056672668076   19.28403953644493
C        -3.49507232391721    8.71515222811212   17.18257580547229
H        -4.23493603829974    9.48753042242887   17.29373318379966
C        -3.15676637040006    8.23693261334658   15.91342464620749
C        -3.67529029847444    8.76156339987998   14.65621033131760
C        -3.05191663684173    8.25956840742530   13.48975475503708
C        -3.42407495903909    8.79224874627984   12.26267202145383
H        -2.96622008477125    8.46558612306304   11.34079788197052
C        -4.39628342132544    9.77442534104449   12.18549014835416
C        -5.04969964626049   10.24826627821858   13.30804362139227
H        -5.81991753822679   10.99793881827014   13.23841884701051
C        -4.67306183761351    9.73204103850977   14.53085470598245

