115
CSD_code = MENYEK | q = 1 | S = 0 | Stoichiometry = C56H48CuN4O4P2(1+) | MND = 4
C         7.90393740010327   -0.78681351823904    8.54741940134099
C         7.13034908301293   -0.65828236152551    7.39942363278771
H         7.57245487290329   -0.90446694178556    6.44611965846760
C         5.82801739651445   -0.21259878973397    7.49993374010713
H         5.21872786103549   -0.12110669080638    6.61496414492003
C         5.31613213507368    0.13418483723398    8.74270896663836
H         4.30724426911914    0.50848041289020    8.82305213193574
C         6.08349662808572   -0.00691493690628    9.88466542108149
H         5.67472595942956    0.24322160101702   10.85143439969862
C         7.38415725883228   -0.49877782415039    9.81465493041034
C         8.14814971738132   -0.73064167029683   11.03847724945771
C         8.42273102427986    0.23637493144539   11.92210664605555
C         9.19488469504079    0.01591933846568   13.11252897101250
C        10.48720642329746    0.81070604724553   14.92637711184743
H        10.62408768555156   -0.24795563155010   15.18553179352775
H        10.00703164591311    1.32867038209874   15.76424556445464
C        11.85483102739567    1.46196650118035   14.66108309032586
H        12.48355857722273    1.41329197982258   15.55943134555172
H        12.35345631975856    0.90689400043744   13.85591025100463
C        12.41080072909013    3.76050584189748   14.56026348619012
C        12.18403572384443    5.09851462627142   14.09922583314991
C        12.97681438011672    6.12909865775036   14.43233338646383
C        12.73265017447047    7.49554531122684   14.00077865482126
C        11.43188859157367    8.00316614653464   13.98844091854897
H        10.61698470091180    7.35842584653126   14.27997685358722
C        11.17995888890298    9.31970388627430   13.65226918219742
H        10.16425460402111    9.68318155741318   13.66118557252056
C        12.22058290770788   10.17410267913481   13.31639401798196
H        12.02277520876841   11.20246889940858   13.05979246287603
C        13.51675920002499    9.69767065285897   13.31143873392963
H        14.34911746868430   10.33174663872629   13.04509116028074
C        13.76912444467140    8.37299425107792   13.64552018097875
C         7.92350183918025    4.36498742165667   15.23354309231007
C         9.03694574231165    4.51745502132290   16.05533863024773
H        10.02528743894300    4.45632167131294   15.61999117372852
C         8.88000994171487    4.73883652522012   17.41081234132370
H         9.74764333576175    4.85788942537748   18.04274550889081
C         7.60819036516159    4.80402801742034   17.95703273396949
H         7.48275436979995    4.97343839712534   19.01537335362628
C         6.49711954430033    4.64919562814244   17.14401170854851
H         5.50606403833297    4.70025364671052   17.56932365938118
C         6.64814283301689    4.43115180993308   15.78598028426362
H         5.77495132963669    4.30788444331761   15.16084434900086
C         8.27914147898212    5.83580923196931   12.85123100380065
C         7.45019796160612    6.82675461088959   13.36910529638889
H         6.76049808638189    6.59233554340225   14.16736014372832
C         7.50956510696811    8.10847426134838   12.85334647525574
H         6.85940843129115    8.87444994716443   13.24901230441297
C         8.39523727607048    8.41129381864121   11.82967389482397
H         8.43152332483719    9.41239948081201   11.42731372363657
C         9.23172338287784    7.43102119335492   11.32171644650525
H         9.93066902978301    7.66199834554703   10.53211442657979
C         9.17242962132901    6.14733906538269   11.83186685710599
H         9.81928911948743    5.37160127520162   11.43908606603645
C         6.64178537143982    3.50423239524708   12.86002527138559
C         5.91977367140836    4.12597665843286   11.84753161946496
H         6.27906056110231    5.04863155632457   11.41308029376511
C         4.73234976122111    3.56742163960204   11.40624356227704
H         4.16645008531508    4.05927396945068   10.62909414833184
C         4.26282426909002    2.39074715202704   11.96526755365457
H         3.32985464421752    1.96623203537811   11.62642876087486
C         4.98943366033043    1.75838628507631   12.96397717460716
H         4.62420772633619    0.84080636783551   13.40175685417743
C         6.17923068034497    2.30593872506713   13.40269034445244
H         6.75729899773734    1.81958444997682   14.17783405875973
C        11.95289717963129    4.20540796955331   10.36539831027506
C        13.11439059737848    4.45258226805159   11.09468133988952
H        13.45388083935649    3.72057235010516   11.81589896289870
C        13.83706904047003    5.61032344054530   10.88558519589971
H        14.73981049596838    5.78186003155091   11.45130629056071
C        13.39525497133963    6.54025276427568    9.95690846647912
H        13.95687828085215    7.44727887216155    9.79077816563696
C        12.23956508869956    6.30088879551286    9.23164312306803
H        11.90394446903995    7.01919714674569    8.49796437582805
C        11.51363967572507    5.13927492727540    9.43359614569181
H        10.61222324375018    4.95654057655646    8.86476599264675
C         9.83870777533117    2.55053641842135    9.42124888780531
C         8.54679544333201    3.01966560596168    9.63804206327336
H         8.29262171511171    3.43819418458895   10.60612486228431
C         7.60357056228025    2.96566778630577    8.62954741665858
H         6.60363195426053    3.33270783320745    8.80687078469869
C         7.94862463306555    2.44329630046009    7.39358737500518
H         7.21905974393109    2.41112207062342    6.59900056072511
C         9.23100669942128    1.96382173613002    7.17547546970457
H         9.49827261126437    1.54926200148852    6.21517513104182
C        10.17587195913464    2.01008369532826    8.18513414632485
H        11.17167938406663    1.62850062073146    8.01286325025044
C        12.24267950095179    1.39749434139877   10.41391241834241
C        13.31034865061923    1.59728940443133    9.54212976945341
H        13.46116876183297    2.56209524319433    9.07795495513281
C        14.17842824652903    0.55598819257631    9.27000101362379
H        15.00088015504036    0.71144378222145    8.58793792321950
C        13.99262709855497   -0.68342096385963    9.86171021763900
H        14.67129516255949   -1.49276977289348    9.64033378818560
C        12.93500234903838   -0.88397440794949   10.73274349612534
H        12.78463868959145   -1.84997910657282   11.18995425954636
C        12.06381386137009    0.15297351353966   11.00932404813156
H        11.22627712053058    0.00082174812633   11.67473307152246
N         9.28624191282559   -1.14769671260172    8.41178279443387
N         9.66122671516365    0.99719421014315   13.77241721103381
N        11.64996003743422    2.80399539714418   14.20568743146391
N        15.13203677155828    7.91516618858908   13.56619544849469
O         9.70600895158040   -1.38756306972959    7.30298977352219
O         9.96832043516504   -1.16163422198286    9.42071567047025
O        15.32291092667574    6.71652175651832   13.48340079206331
O        16.00560792168575    8.75077839676528   13.56574146170019
P         8.25077709800076    4.11404473041429   13.45556927066798
P        11.02561658188145    2.69755855608737   10.79842798503417
Cu       10.08564779861559    2.85009614066079   12.89331681714536
H         9.37351214836239   -1.02129998928713   13.41647307438096
H        11.34086939302153    5.23465855095297   13.43258468267267
H         8.14508358278746    1.26201297540488   11.71830636134901
H        13.84405849507894    5.95131059603322   15.05443097360564
H         8.47866717525845   -1.74590521443003   11.21877588774671
H        13.25860806578790    3.59513566193331   15.23102107722336

