53
CSD_code = MENZEL | q = 0 | S = 0 | Stoichiometry = C22H22N2NiO6 | MND = 4
Ni        6.53577793143377    3.48659637937168    1.53523324069852
O         7.54951242702435    2.31235405440343    0.50533606969356
O         6.47855121344872    4.59221726176778    0.03850789261694
O         7.99177626724366    1.77264767616578   -1.98976826604012
O         9.14297932231851   -0.06211471712221   -2.45057451004534
O         7.81019288595698    5.00849336522510   -2.14462467320754
O         7.27628171902508    6.79225246813246   -3.34348529590170
N         6.77721633049063    2.51075968688418    3.08041189538309
N         5.34823913570265    4.52894011811601    2.48465110954560
C         8.64444500433778    0.67380683819968   -1.63625071253274
C         8.71012361348673    0.36581433440247   -0.16907532250100
C         8.10923829911851    1.19293307346694    0.82479749053376
C         8.16456891387067    0.73670514209942    2.17723197744851
C         8.85010608520893   -0.44784660460529    2.49843035160653
C         9.45222794822568   -1.20338010260788    1.52561733063071
C         9.36369683728111   -0.79446067668654    0.19792284529641
C         7.52181329716205    1.46281273319687    3.21556755182653
C         6.22549346284020    3.17132903490784    4.27744529248551
C         5.89007274182254    2.18282242124923    5.40068227354031
C         7.29755239354434    4.16105929291386    4.76253402299039
C         3.81589314603762    2.95194277824103    3.47875853117779
C         4.48532014328134    4.98405764248738    4.79230217611900
C         4.95852165703799    3.93654029976270    3.77727696282032
C         4.71616131194989    5.56590911267898    2.04177591834861
C         4.93278304391696    6.22940779330763    0.80431580482013
C         4.22305101971470    7.41203584009498    0.53235309518718
C         4.42690516199652    8.10841136168037   -0.63094747244514
C         5.36718042188587    7.64104356200826   -1.54489018434770
C         6.08383588611943    6.47998022175912   -1.32942701170233
C         5.86372315045310    5.71278418643713   -0.14793592393023
C         7.10092719816082    6.10653886687044   -2.36761790588426
H         7.51188298418428    4.56744744640630   -1.31467858778610
H         8.88672549976525   -0.76029954246710    3.53275062799200
H         9.97746083506721   -2.11023646970840    1.77965806394878
H         9.80600613899395   -1.38182244583320   -0.59350087079478
H         7.68185101400692    1.05464708008176    4.21082586199398
H         5.20529226655958    2.63976923269465    6.10869572055536
H         6.78396853546185    1.90666686753415    5.95422295253853
H         5.42660880443125    1.28263532022120    5.00540682065432
H         7.48871874422541    4.91262428557513    3.99594440779887
H         8.22668925725193    3.62736009227965    4.95162412897846
H         6.98905656935750    4.65165856208201    5.68041231929693
H         4.16597050938984    2.16122695604610    2.81447002567023
H         3.43123623657373    2.51156457325887    4.39333335829197
H         3.00383449453239    3.47715775992045    2.98016417768939
H         4.52618442398229    4.57593445797953    5.79766144031581
H         5.10828514531546    5.87401860535219    4.75653614297893
H         3.45271806449380    5.26732354857967    4.60469068383383
H         3.94320790229163    6.01595198685563    2.66047895212098
H         3.51480539585165    7.77086702257520    1.26612291768773
H         3.87761910940645    9.01397938157299   -0.83349795648575
H         5.56813819670289    8.18132458603331   -2.45850543279309
H         7.67487190205490    2.25770724815502   -1.19187030872104

