81
CSD_code = MEPBAL | q = 0 | S = 0 | Stoichiometry = C39H33Cl2N3O2PRe | MND = 6
Re       12.06011754819183    5.38846866918479    6.62257720543336
O        10.61242704306526    6.18865623970211    6.50261860598166
Cl       11.40005390054306    3.83048112549280    4.93625490800832
Cl       13.09798397400278    6.95547020254962    5.14885413870022
C        12.63057737732926    6.61486674785504    8.27292077016256
N        11.78575081282176    7.32225886835644    9.06504747259601
C        10.42613702315053    7.60053852161992    8.78133703623187
C         9.43554010731839    7.08946053516412    9.60648857914906
H         9.70528669675774    6.49155752226209   10.46376035328072
C         8.10930192306756    7.34995398713654    9.31134694228933
H         7.33355071441162    6.94362052106723    9.94250021255390
C         7.78075028215881    8.11843174793628    8.20721035133083
H         6.74390233216633    8.31239804269649    7.97713677661471
C         8.77662231391783    8.63412297404950    7.39405640162296
H         8.52022282456732    9.22635781182241    6.52968141497039
C        10.10725649931091    8.37617650776316    7.67261748659547
H        10.89520011527456    8.75040520252590    7.03623529454172
N        13.79025533612956    6.62916912804402    8.94319736475833
C        15.05249691266787    6.12437376368115    8.55930551222822
C        15.59697664949431    6.46586284989065    7.32857686252840
H        15.03607387927197    7.07772094250156    6.63558392121642
C        16.84935922812822    5.97948193268475    6.99448731192596
H        17.27638238214088    6.23535287916478    6.03677414733184
C        17.55295229116849    5.17846999278493    7.87950071219624
H        18.52919738195463    4.80354068989054    7.61046190960965
C        17.00785363523210    4.86059136983494    9.11285182569049
H        17.55670998553888    4.24047684257081    9.80594027437412
C        15.75671940997522    5.33676676739179    9.46035604262388
H        15.32266837742083    5.10645769891657   10.42184828644449
N        13.69409190395553    7.26304828081181   10.12711668563527
C        12.47015706751156    7.69517631027318   10.19694029553516
C        11.93993220259831    8.44873559182738   11.32133957705835
C        10.96743846016199    9.43326470564962   11.16261405993713
H        10.59019557092367    9.67366315384147   10.18093630051619
C        10.50105726009465   10.12440706519446   12.26577437785424
H         9.74873433956178   10.88755564357385   12.13562797394245
C        10.99692628730667    9.84709737055445   13.52884363335403
H        10.62554189345608   10.38811569894631   14.38614094446997
C        11.97945754148714    8.88282055449204   13.68827446392400
H        12.37803515544342    8.67423733559735   14.66984768709389
C        12.45279344230040    8.18913561407963   12.59206717463955
H        13.22412812348662    7.44340055052100   12.69985077719762
P        10.95456273114507    3.43795181532006    7.81819179696313
C         9.23911425577170    3.06732377476483    7.36286074536599
C         8.46178433608679    4.06935499383244    6.79272644692619
H         8.90862584178106    5.03479850251966    6.58969408588315
C         7.14201004065456    3.81417629921043    6.46622368571398
H         6.54233172843928    4.58988285942236    6.01433209998096
C         6.59499073073759    2.56482850006378    6.70972281279226
H         5.56620309755972    2.36420773103259    6.44871937032179
C         7.36766697798780    1.56719712821324    7.28311122604243
H         6.94108383617709    0.59260471351182    7.47157773874788
C         8.68801961745623    1.81296015039681    7.61244015576834
H         9.29104133870892    1.03426462910812    8.05968682567359
C        11.81388558116064    1.83996911395052    7.71460736861026
C        11.64873829056983    1.07789239810420    6.55827347425030
H        11.00824250689034    1.44290957473245    5.76886864161316
C        12.32675537721403   -0.11804341813068    6.41430598292805
H        12.19630047544491   -0.69953581349038    5.51386147326675
C        13.17283099641721   -0.56712824200324    7.41568020095463
H        13.70548762402559   -1.49942943332872    7.29951084591922
C        13.33138432551889    0.18228216878397    8.56915194473196
H        13.98373273015923   -0.16645680752867    9.35687049938357
C        12.65706580792026    1.38102857475739    8.72194198502768
H        12.78269707000950    1.94711930545219    9.63339164639754
C        10.85263655818309    3.75632782606173    9.61377823412848
C         9.67213590001787    3.68974324037648   10.34290858944460
H         8.76017272365989    3.36740365754597    9.86213258396181
C         9.66396671409794    4.04459602631810   11.68214284684284
H         8.74215366627526    3.99234902800481   12.24295514822657
C        10.82579514524648    4.47319277326883   12.30237663351007
H        10.81143948423394    4.75918426348881   13.34353167551793
C        12.00823334934402    4.54131987844391   11.58120206783100
H        12.91671922434185    4.87493663095923   12.06135481374882
C        12.01775697484331    4.19033233520462   10.24556714460390
H        12.93230168768707    4.25247548737631    9.66837943771155
O        13.57310069782929    4.46400435967348    6.74712620730938
C        14.48849855622298    3.55907219552724    6.30133180183450
H        14.98195288629481    3.04815671292580    7.14170941271765
H        15.25418225546986    4.06469312917445    5.69703303350725
H        13.98108265295918    2.81100597702760    5.67211724370423

