127
CSD_code = MEPDIX | q = 0 | S = 0 | Stoichiometry = C64H56Cl3N3Pd | MND = 4
Pd        1.21300164696786    5.14545817905270    2.63592123889299
Cl        2.61638951279238    6.96309332756440    2.84155211213454
Cl        0.06157143927371    3.18544034433080    2.34006190355743
Cl        5.18855891511089    3.08086747956574   -0.72793156418321
N         0.19410397901511    4.71269403121024    5.41915306770582
N        -0.39099368217879    6.63645871382244    4.54705139663761
N         2.06178616262310    4.86702548241694    0.86891559183370
C         0.30559091222464    5.49573808038421    4.32300171257849
C        -0.56513221215312    5.36883942896547    6.34862076095272
C        -0.93527455596486    6.58453947874705    5.79760496505754
C        -1.77120289592216    7.31147886928401    6.72765743256441
C        -1.82525602981993    6.46424280845021    7.87128168251918
C        -1.09472865170450    5.25537243657131    7.68907746701465
C        -2.52869851163039    6.77452925842421    9.03040359433954
C        -3.22388906477058    8.00794654612893    9.02561397153317
H        -3.78571300399294    8.30496082869326    9.89907281275760
C        -3.19346261665718    8.81539627667841    7.91625602471147
H        -3.74075677498141    9.74700496024936    7.92856641670067
C        -2.47570323750909    8.48636691702516    6.74816144048954
H        -2.50057890428470    9.15012284394578    5.89616743337469
C        -2.46997311487140    5.81518309595274   10.07009447700960
H        -2.99342771434297    6.00257124675200   10.99621425129551
C        -1.75450538847397    4.65570105737226    9.90303079330894
H        -1.72098113934927    3.93777973592091   10.70981028582643
C        -1.05835040403280    4.34851616828361    8.71625094056422
H        -0.51451935463336    3.41857705745403    8.63443164130445
C         3.15322912680284    4.13420832025901    0.69510204827795
H         3.54342709963957    3.61100215305301    1.56450311390450
C         3.77045821351821    4.03957369598931   -0.54561909914911
C         3.23567737627222    4.72269581360740   -1.63009224636580
H         3.70332047996197    4.66232604092056   -2.60003077427823
C         2.09333466749976    5.48046825677830   -1.42495242488313
H         1.64725664425029    6.03392139605087   -2.23555810575225
C         1.53610977072340    5.52836363766557   -0.15936311952059
H         0.64749442224671    6.12253540197329    0.05112486268752
C        -0.39772384936334    7.69290918866110    3.59414761154835
C         0.34363813006638    8.84762199643709    3.84123085670719
C         0.46048073594332    9.78667396503838    2.82367779102382
H         1.07317207891464   10.65891313517695    2.99169172192924
C        -0.12678317521679    9.59167497606721    1.58719140399019
C        -0.90049884029591    8.45588854085955    1.38406426370334
H        -1.37776956297165    8.30677201747423    0.42464271788898
C        -1.04497607287740    7.48906084156654    2.36633154043113
C         1.09774024296793    9.07523298262741    5.12213435193201
H         2.15333899372902    9.18466780200028    4.86348496438462
H         1.01394757098040    8.21139258967432    5.78189300852236
C         0.62649662544868   10.32282726170381    5.86750489906978
H         0.69851940155875   11.20465986517068    5.23585291704123
H         1.24120863323874   10.48110017008682    6.75049506312306
H        -0.40658164266562   10.21225182110020    6.18857144121484
C        -1.93842173610942    6.29878235367187    2.11587571668493
H        -2.22695594703276    6.29218240322208    1.06234801471407
H        -1.41150620012052    5.35578869830522    2.32026923545300
C        -3.20712774981180    6.36475662989975    2.96926916585832
H        -3.75266963360037    7.28463480214485    2.76555999118943
H        -2.97524994377394    6.33488780267234    4.03140631884220
H        -3.85267029695936    5.52070477492934    2.73876538259170
C         0.11139193577206   10.52018081600255    0.41764587271847
H        -0.83721043750154   10.62814691466804   -0.12347273449485
C         0.54758501175726   11.89920597222146    0.85892852657785
C        -0.41179408618808   12.87156758579138    1.11155229156584
H        -1.45838495716208   12.63676420085173    0.97378414709567
C        -0.04258261279152   14.13451071508525    1.53857087520827
H        -0.80035941033631   14.88078785910280    1.72906696841071
C         1.29498670651577   14.44196810588879    1.71912491342566
H         1.58547718721171   15.42822306760613    2.05011031419561
C         2.25776700476390   13.47840309121807    1.47206654207834
H         3.30349326202797   13.71066988986239    1.61222189028930
C         1.88761037857403   12.21506065952893    1.04573763850209
H         2.64458274370884   11.46849627653071    0.85567098263808
C         1.11924854785292    9.90714419054507   -0.53459529087952
C         1.06641411552432   10.23542354749092   -1.88355824305581
H         0.29651964322351   10.90611839876648   -2.23992048118579
C         1.99158301343312    9.71865882226247   -2.77287063692685
H         1.93726520059856    9.98344648282453   -3.81913363246548
C         2.98674394153297    8.86779064178756   -2.32228468231876
H         3.71322553496342    8.46743272937414   -3.01480235465436
C         3.04707398292544    8.53790973487437   -0.97941045977714
H         3.82235665459569    7.88051517063093   -0.61324652788367
C         2.11922266527193    9.05094834609415   -0.08961301794854
H         2.17934518650828    8.77494175436213    0.95262375677169
C         0.62903902685394    3.36150272397625    5.50750311354427
C        -0.35160477990489    2.36697353571251    5.60150831252914
C         0.06044663219038    1.05140348802553    5.73525784426272
H        -0.67604763731217    0.26816989279727    5.80929394339426
C         1.40430000987480    0.70958928143519    5.73215595765035
C         2.35094917658711    1.71067304955479    5.59277319944990
H         3.39969387703519    1.44932031505636    5.56815443472779
C         1.98842368593962    3.04484325478941    5.47374952264958
C        -1.81160260440526    2.72595795261929    5.49610007840300
H        -2.17863998595613    3.07980688739264    6.46553590155666
H        -1.90526189880742    3.55015647534107    4.78435729546350
C        -2.70039309129899    1.58757114948329    5.00669507276899
H        -2.29907712044261    1.17413366145218    4.08503726790766
H        -3.69959019222360    1.96909933934787    4.80770092099896
H        -2.78670642833687    0.79389813425948    5.74507544117188
C         3.06153495173719    4.08949755767615    5.31688883119314
H         4.02065004966881    3.58497129661310    5.18150289110187
H         2.87080417656799    4.69319527548767    4.40852709525510
C         3.16443621004160    5.01492057432303    6.53009073387576
H         3.97057256417194    5.72873401985970    6.38114005478854
H         3.36943275564470    4.43669167294538    7.42968000489028
H         2.24532794169770    5.57447604341086    6.68389526953396
C         1.85042077456116   -0.72557061594653    5.90155888795025
H         2.78595139160065   -0.85421615198635    5.34134230524130
C         0.84694765380684   -1.69836178389640    5.31466113091999
C         0.41944036275487   -1.50187083842021    4.00450110002531
H         0.79093943660856   -0.65505625892952    3.44533651190587
C        -0.48669472223128   -2.36726209346196    3.42220773990330
H        -0.81365988089637   -2.19678638853432    2.40691965259207
C        -0.97459885371405   -3.44863186884188    4.13819753960478
H        -1.68309551021825   -4.12604916557368    3.68438577548479
C        -0.54770728081003   -3.65565801082356    5.43727987540423
H        -0.92033592857651   -4.49817549026270    6.00217253702369
C         0.35771085925271   -2.78588993044478    6.02319974026151
H         0.68258956835355   -2.96000467966543    7.03876336393158
C         2.14886712759980   -0.98904311593337    7.36041880476933
C         3.31426811720244   -1.64886426577046    7.72791438660053
H         4.00853154142019   -1.97271851804152    6.96471926426837
C         3.59326179361880   -1.90266228897821    9.05957046724548
H         4.50351280803199   -2.41875773164714    9.32883548593963
C         2.70910425277929   -1.49628262913218   10.04368294861069
H         2.92574769539481   -1.69249589853335   11.08347495811315
C         1.54466634350688   -0.83685862853661    9.68706760311761
H         0.84918806427026   -0.51829860283048   10.45052897755654
C         1.26658229168501   -0.58534836385367    8.35599616630625
H         0.35584268818273   -0.07232122293981    8.08408044896108

