70
CSD_code = MEPDER | q = 0 | S = 0 | Stoichiometry = C35H26N4NiO4 | MND = 6
Ni       13.21364558896674   12.95101113295865   10.07070892229184
O        11.76863841775376   11.84032620251482    9.58514641702152
O         9.91502244702630   10.76573983345472   10.03943673786006
O        12.81258347604089   12.73909174825447   11.87787428914414
O        11.86091887143247   11.91019702512711   13.66384901846547
N        14.71340430968748   14.07187699952493   10.68092421634734
N        14.98277009801218   11.39580447667529   10.34146510764653
N        13.39868712242992   13.31778037864595    8.18029873526950
N        11.65048957341903   14.68009235864482    9.74971801912667
C        12.13304411364820   11.83304711160038   12.47876120117069
C        11.71001424012861   10.60617375498374   11.64467046378871
H        12.64392539959529   10.11165197218735   11.34297347781852
C        11.04709323294540   11.09969884105534   10.34543612273807
C        10.84412315892530    9.65260187367008   12.45646172863101
H         9.89099379773192   10.14180326968791   12.66297160477999
H        11.34138983916219    9.46912790341976   13.41178865582618
C        10.56891977420418    8.32841704867998   11.73215409711654
H         9.95703521381144    7.70121082244648   12.38581327879204
H         9.99859713013230    8.54905287781611   10.82978930634664
C        11.82751122305256    7.59708519990220   11.37546837627264
C        12.55054118541209    6.91172242799420   12.34557373241542
H        12.19612434763376    6.90894158292680   13.36656521789037
C        13.70578705397200    6.22582415111572   12.01725778009939
H        14.25168292053109    5.69080105653056   12.78198461494117
C        14.15889914100299    6.21444273208688   10.70808705288929
H        15.05201829927475    5.66314901349079   10.44600304532603
C        13.45529352723193    6.90510484028634    9.73500867247157
H        13.80491053928375    6.89988227882882    8.71123941571496
C        12.30164474800030    7.59315301828914   10.06865185406240
H        11.75224913275180    8.13081545213576    9.30861063052427
C        14.61613615409429   15.37941862067789   10.80272756050004
H        13.86499717213522   15.86782006711229   10.19614579337864
C        15.41947503523498   16.12671936189177   11.66837769437732
H        15.28815688095136   17.19571929063463   11.72884759248963
C        16.34980478914325   15.48067659831384   12.44452036027853
H        16.97135517048320   16.02094504624753   13.14379330101482
C        16.48068234707301   14.08722252059805   12.33151408003050
C        17.39000406546525   13.33308433649445   13.12776153306684
H        18.01579730958407   13.86804933613242   13.82699691109074
C        17.44466989776494   11.98282953555226   13.03901871229715
H        18.10939628985601   11.41204383481033   13.67091059685011
C        16.62178891852046   11.27604794391673   12.11710530243194
C        16.62286934304423    9.87419237950408   12.00497279395070
H        17.26219616820990    9.28841287074772   12.64973753751567
C        15.80582836098054    9.27675151430116   11.07833715544120
H        15.75946493070455    8.20434306391757   10.97555408650865
C        15.01931010645374   10.08527452192885   10.24802244613394
H        14.40065214265917    9.63943441197102    9.47960006425556
C        15.74543446912972   11.99375680305708   11.27619235331580
C        15.63912262162039   13.42122762173487   11.41363941967579
C        14.28222957877855   12.71548484781399    7.41073414692576
H        15.13378647128025   12.26961432933640    7.90800350398552
C        14.15225445034101   12.63065277300568    6.02208747863713
H        14.90898388720013   12.12210521729767    5.44541285567565
C        13.04589483914703   13.17614791093887    5.41822890520765
H        12.89602688693735   13.10372334331649    4.35071784669046
C        12.08738352992018   13.82560582479793    6.21236683715529
C        10.88574144012458   14.37129499994140    5.67490269237303
H        10.73098278222985   14.30188237251092    4.60803324187673
C         9.94491973832330   14.92153611218675    6.47898751148217
H         9.01573514189156   15.29200877108938    6.07094266201802
C        10.14987233621312   15.01928965470617    7.88452542250055
C         9.19534894256481   15.55425715834561    8.76781056441120
H         8.24875426896694   15.90396718981549    8.38098663061208
C         9.48303897325172   15.61140802241922   10.10890286755570
H         8.76511070858568   15.99274536629918   10.81791697787683
C        10.74158621675577   15.18350447873688   10.55185318227372
H        11.01537103243841   15.25362773622475   11.59646300395579
C        11.35751717838382   14.55121488601552    8.44300940497982
C        12.32126150034801   13.89173194073300    7.60394717642551

