139
CSD_code = MEPDAP | q = 0 | S = 0 | Stoichiometry = C68H64Cl3N3Pd | MND = 4
C        13.05291019329354    2.34171251407442    7.08124903940095
C        13.64746399520822    1.07822213268430    7.11730227049140
C        15.01734169513362    1.00299609499672    7.32484158105225
H        15.49691166723421    0.03590361721032    7.35242332208806
C        15.78716888245164    2.14009455544643    7.49878295907460
C        15.17037338314140    3.37953435389510    7.45297803895578
H        15.77282932874798    4.26791252017191    7.56275080384581
C        13.80748351543453    3.51140062513326    7.23744843744246
C        12.85311781153343   -0.19477637210841    6.93093879220231
C        13.31494180376550   -0.90141648250068    5.65132316432489
H        13.26486150027719   -0.19065181760552    4.81015855225947
H        12.66339221472202   -1.74669460598195    5.43686450869983
H        14.33817111669229   -1.25873228991728    5.74509169442644
C        12.98116298513971   -1.10959778987419    8.15011785077799
H        14.00942669411584   -1.42976079867721    8.29762738561185
H        12.36243661811177   -1.99323184323228    8.01309915986408
H        12.65154683680508   -0.59305855809745    9.04956394804845
C        13.22604193151025    4.90297418624582    7.12052522577422
C        13.46650964469132    5.73220203128638    8.38463042404952
H        14.53019783188854    5.86167587046407    8.56783144989609
H        13.01771251494192    5.26247721072955    9.25644558566973
H        13.02192196466077    6.71785875589580    8.26407730827564
C        13.83266561213976    5.61545498668454    5.90782777728698
H        13.34466674147354    6.57674067691843    5.76054298091111
H        13.69910114595369    5.01106211525592    5.01497024964239
H        14.89667404569971    5.78673838623476    6.04993361085403
C        17.26658207095962    2.00813369471364    7.78328553577834
C        17.46558640285362    1.77988397343820    9.26520113819279
C        16.80549671630920    2.56337339010620   10.20482771751069
H        16.13810279231944    3.34496216907345    9.87292131632382
C        16.99714825360097    2.35083590524819   11.55774288747143
H        16.47851417255793    2.96856277444947   12.27694656956947
C        17.85157832463852    1.35158707275966   11.99270688301701
H        18.00066872819522    1.18597060530726   13.04955762184688
C        18.51344681193677    0.56680602521233   11.06486912268078
H        19.18282633503803   -0.21419788491409   11.39529012425949
C        18.31971565067928    0.77992121601453    9.71109605484155
H        18.84353901096554    0.16496873787425    8.99237161715816
C        18.04919844220860    3.19276806574723    7.25327863475197
C        18.95399960350758    3.89895639381467    8.03211572979590
H        19.11562315883512    3.61752756313094    9.06255910465969
C        19.65593402711257    4.96724556489480    7.49781816026585
H        20.35695851841386    5.50816284129348    8.11715539856860
C        19.46145054159607    5.34213271532518    6.18079678536169
H        20.00724833990885    6.17751449155770    5.76728532115706
C        18.56282626480906    4.63875920549160    5.39508225710498
H        18.40294804490802    4.92387919974720    4.36564509764785
C        17.86567858730616    3.57054983990309    5.92617108501041
H        17.15884250535052    3.03069115651924    5.31262422106281
C        10.80980912634504    2.98795899802559    7.85868158440134
C        10.76780060931886    3.45431470767682    9.22609798336218
C        11.61511932610654    3.51023583609220   10.30215483794195
H        12.62594446103927    3.13153785720270   10.25066841425718
C        11.13178283049991    4.06810265735775   11.50375404466970
H        11.80538641457843    4.11351556757619   12.34742878952773
C         9.85720668484683    4.55881885035360   11.63905375717468
H         9.53722858493642    4.99048546136951   12.57609626855034
C         7.60728380366460    4.94719444374820   10.51950651961445
H         7.17578541011233    5.40272472540934   11.39873458205850
C         6.86595786425941    4.82221787275964    9.37145854849051
H         5.85069273792715    5.19194472876121    9.35753998886802
C         7.36646574684683    4.22327999515723    8.19726641014881
H         6.74448939892889    4.16734585489588    7.31562505070680
C         8.64888081771666    3.74126532425169    8.20795715422473
C         8.94808201047414    4.49429416481028   10.55557379959557
C         9.43176262849068    3.92026139099125    9.38447472094617
C         9.55464175309294    3.09004459960950    7.28585604483427
C         8.59938811680285    2.30046407804378    5.10789206937731
C         8.63891602433744    2.93727972411747    3.85874644971447
C         7.70713288931717    2.55571881409067    2.90393687897655
H         7.72237113892055    3.01939156602665    1.92860793840064
C         6.76001911107726    1.57686341277841    3.16618961030297
C         6.70110264880096    1.02257848056086    4.43234626988678
H         5.94925284462164    0.27994247630299    4.64568040310789
C         7.61090718424901    1.36251414088301    5.42371302848529
C         9.55695090154936    4.11596063035221    3.59440720901527
C        10.24274492992077    4.03839591862771    2.22962546095671
H        10.80722515393280    3.10363750920163    2.15281969249028
H        10.94608762375117    4.86198758872383    2.12945908227754
H         9.53009522442785    4.09324980380414    1.41058679513575
C         8.73342571134206    5.40270736895137    3.71875106663493
H         7.93575011692658    5.42005840005209    2.97920221388644
H         9.37072082494971    6.26994293646291    3.56262363502223
H         8.28563682250123    5.47714859208857    4.70822324615197
C         7.50843589437603    0.67574492145889    6.76714845280564
C         6.16841843763485    0.98819484625130    7.43911432016953
H         6.04620129842938    2.05576237733418    7.59879451531190
H         6.12047958650009    0.49287288673536    8.40642002071949
H         5.33930243094236    0.63378951266225    6.83155873539747
C         7.66973479837512   -0.83969398254197    6.62029902808283
H         6.81949269006018   -1.27132275483846    6.09864418361572
H         7.73955541046199   -1.30054466996015    7.60339505553557
H         8.56884715263653   -1.06826207176691    6.05558394603113
C         5.85785808328480    1.10985473070369    2.04536801425384
C         4.56746564503605    0.52097007432575    2.57077017425314
C         3.48865256142823    1.35895645128152    2.82318018813573
H         3.57708676201367    2.41726330658463    2.61917914069299
C         2.30638187391911    0.85467075797610    3.33443465395252
H         1.47569131183887    1.51910325306436    3.52383661386392
C         2.18775540526885   -0.49841447565210    3.60159763087203
H         1.26530908233476   -0.89463521246441    3.99990067680472
C         3.25810150678869   -1.34083624034946    3.35452266566185
H         3.17320039496650   -2.39779810814148    3.56181536749583
C         4.44058955333890   -0.83551123624790    2.84325978179437
H         5.27106789770100   -1.49977395175482    2.65386127204585
C         6.58960095619181    0.12422745486116    1.15713543012726
C         7.59369077832389   -0.70031918299811    1.65004902040204
H         7.89882469363918   -0.63426758146515    2.68400830817437
C         8.22188013567335   -1.61069725119181    0.81732357602141
H         9.00143839506862   -2.24114195827806    1.21910639805011
C         7.85584452285086   -1.71019163473800   -0.51400929997268
H         8.34605754537919   -2.42271628031570   -1.16219410395307
C         6.85401838696538   -0.89346881334701   -1.01112018925675
H         6.56001331098862   -0.96605724059186   -2.04839973543143
C         6.22605953481255    0.01643287597193   -0.17956981455332
H         5.44013030630042    0.64778691051475   -0.57113565004951
C        10.93095292599051    2.17323095945675    5.80278204915945
C        13.21642114844098    0.30615413301733    1.89507559877425
H        14.01256902959396    0.48234481196582    2.60994125162818
C        13.49342897773616   -0.23361816289148    0.64592332035186
C        12.46381479220315   -0.41706532083433   -0.26704710084142
H        12.66096761632352   -0.83663139502523   -1.24100534718131
C        11.18672832029164   -0.04249819460763    0.11651044206977
H        10.34821221897577   -0.16286529729954   -0.55084307817148
C        10.98696564808471    0.48350433001136    1.38133840733342
H         9.99078625040194    0.75958725546032    1.71467739779570
Cl       13.17651361541967    2.93448009183816    3.85358341329955
Cl       10.09331406932249   -0.38947026130210    4.27551856942491
Cl       15.10999550947916   -0.66911997083192    0.24430889589933
N        11.64518816183980    2.45079857511485    6.91997022022268
N         9.64721426127777    2.56222192920671    6.03076907673300
N        11.98406938894768    0.65018962034084    2.25047749805022
Pd       11.50665783772838    1.39987036009474    4.08831013081188
H         8.30776138662756    1.03282794156339    7.42288173828528
H        12.14585699919298    4.83857983611399    6.96045411505440
H        11.78951836110305    0.04404233321777    6.80480468350434
H        10.35265103676582    4.15156125889720    4.34912840791371
H        17.63448789702714    1.11829864947119    7.25551731691894
H         5.60024574898332    1.98367953603204    1.43361056228408

