53
CSD_code = MEPHUL | q = 0 | S = 0 | Stoichiometry = C12H28N4O6P2Zn | MND = 6
Zn        4.64754400333841    8.34383772393141   -0.00002062980993
N         6.34986711334218    7.24018172746774   -0.60140071557596
C         5.71729277429715    6.19742106596386   -1.41454626853338
H         6.43982448341264    5.40763340132515   -1.66635804633656
H         5.36843590382971    6.66606883712496   -2.33704063686923
C         4.51993823742031    5.58442196492122   -0.69329912630041
H         4.09563103716492    4.78078903547155   -1.31053740949724
H         4.83279647893824    5.15807231565018    0.26016067145824
N         3.53365831843432    6.62956844764547   -0.41737619726701
H         3.02891657468850    6.81561164022758   -1.28315216096981
C         2.55567725888831    6.26834288394546    0.60852599949082
H         3.09758202999060    6.11112232429387    1.54216511032968
H         2.04751592965446    5.33030280097705    0.34028881004357
C         1.50772818156627    7.36723981447294    0.77826643725307
H         0.72169281417147    6.97858010851437    1.42901231527168
H         1.04872228939482    7.57523717833189   -0.19188199876116
C         7.27684033727382    8.03044633392394   -1.42720355859955
H         8.13976376069667    7.40815852899673   -1.70906955500602
H         6.73724307035664    8.31334607149234   -2.33176356496992
C         7.01675792488829    6.63776969571338    0.55137191074402
H         7.90077496632399    7.21501336168618    0.81932825804405
H         7.34772081784572    5.61586013019048    0.33833301149684
P         5.89191118904305    6.61795205216182    2.04594186274405
O         4.97643851318887    7.82163811802404    1.87029415014948
O         6.92013767868134    6.99630408876090    3.24450153811522
H         6.93169341418352    7.93856556226890    3.40373925641585
O         5.29483542120813    5.29817801589158    2.30539610327836
N         2.94524088879230    9.44749999360128    0.60140631405245
C         3.57784982064486   10.49018857031481    1.41461776601912
H         2.85534050103180   11.27997494770280    1.66649808483809
H         3.92670881104532   10.02146393843858    2.33707185593719
C         4.77521009606816   11.10321676832364    0.69340118108224
H         5.19954638747225   11.90678698179233    1.31070224191423
H         4.46234543773507   11.52965468891983   -0.26001696795638
N         5.76146483978495   10.05807376154932    0.41736898393271
H         6.26625636644953    9.87198572448233    1.28310634521866
C         6.73939064153427   10.41933774967784   -0.60857367190901
H         6.19743901538681   10.57657757442128   -1.54218236696472
H         7.24755594098081   11.35737598799050   -0.34033722104005
C         7.78734696941620    9.32045930582538   -0.77839277803401
H         8.57331137385951    9.70913113104247   -1.42921626536892
H         8.24645145066789    9.11249074806501    0.19171462844189
C         2.01821741645398    8.65722682352377    1.42714233599111
H         1.15528840454151    9.27951909804563    1.70898176342445
H         2.55776306102297    8.37429180597047    2.33172183209857
C         2.27838385447693   10.05000730126387   -0.55133420423593
H         1.39433619574150    9.47282769335346   -0.81932738169817
H         1.94747939211249   11.07192425042330   -0.33824225559884
P         3.40324027857286   10.06984719486627   -2.04589002471489
O         4.31864335988110    8.86609259295918   -1.87032386272563
O         2.37499435348166    9.69162982228600   -3.24447866051368
H         2.36346557439918    8.74934384850496   -3.40384132995555
O         4.00038904622436   11.38960846728161   -2.30525190857320

