39
CSD_code = MEPKIC | q = 1 | S = 0 | Stoichiometry = C15H16N2O4ReS(1+) | MND = 6
Re        3.11137577286163    2.05828216459275    3.74231937617925
O         4.85100177197536    4.01755838934892    5.38075337032553
O         2.41487547641725    4.22562554107414    1.64907308548857
O         0.54989349641390    2.54122071605035    5.39651590674375
C         4.16067363475799    3.32049540306391    4.79593353040923
C         2.63592863107577    3.44740986808073    2.45077290450653
C         1.50020479955404    2.38697185421312    4.78099743826428
N         2.18048700658064    0.51610252974350    2.52693183003979
N         3.78575235730298    0.39168007713502    4.98840868200629
C         1.35463561202039   -0.39667312827243    3.04426390003607
H         1.09668271054245   -0.28607262755827    4.09052764863663
C         0.82489232353009   -1.43953317340647    2.30625148529638
H         0.15872747213905   -2.14458548018964    2.77638852010025
C         1.15922857851656   -1.55189292490190    0.96549875289140
H         0.76180810721786   -2.35130335579425    0.36016725346784
C         2.01155000792738   -0.60357105005683    0.42278526010043
H         2.29633337312440   -0.63957973885367   -0.61646362549135
C         2.49097056322303    0.40922492737754    1.23454219998722
H         3.15127758812975    1.16559426466468    0.82927782737243
C         3.62675111311743    0.37389502250089    6.31588662428019
H         3.12876859380344    1.22863142078774    6.75531714912538
C         4.06611769736108   -0.66761771409775    7.11257833715891
H         3.90973312921537   -0.62823884821085    8.17815679847945
C         4.70356713340851   -1.74765197775590    6.52078424245416
H         5.05854205181745   -2.57624202264857    7.11304531454817
C         4.87328853665895   -1.73167485409059    5.14599446149595
H         5.36288019444905   -2.54512186721734    4.63437865834162
C         4.39951485915336   -0.64938333708400    4.42566337650612
H         4.53267436365511   -0.61847761412170    3.35089281416095
S         6.22238411496997    2.39701392643169    2.15273546395763
O         5.03643470932403    1.53935588946059    2.50717483769343
C         7.50403235649762    1.89193606719370    3.35597124912303
H         7.20471646436188    2.25626324585487    4.33465812496150
H         8.44365720068589    2.35205324888079    3.07212117201554
H         7.59526567024653    0.81058441452273    3.37433222990416
C         6.92903470616330    1.52116130452050    0.71100867203381
H         6.26817165071716    1.67602057706977   -0.13667841070779
H         7.01557738143240    0.46058404792253    0.92390887028213
H         7.90078878965026    1.94955481377062    0.49212466782413

