37
CSD_code = MEPKAU | q = 1 | S = 0 | Stoichiometry = C15H14N2O4ReS(1+) | MND = 6
Re        4.05567110968494   10.38214577825307    4.71196641604930
S         2.65601554703525   12.47254078269379    2.11913893876961
O         3.31971117210770   11.26664064589095    2.70912946210159
C         0.94818126231125   12.44397762728394    2.77285279045024
H         0.44089575553253   11.57641807529091    2.36108543329534
H         0.44379012064577   13.34570304269905    2.44478858427946
H         0.96456617623930   12.38725642868991    3.85655892736148
C         3.22838462708630   13.88263126790170    3.12427478622315
H         4.27573950742324   14.06042195418490    2.89907440562691
H         3.11143478941291   13.64659374796702    4.17944215804876
H         2.64683637653264   14.75715942305075    2.85545015115654
C         5.21181362118185   11.91158934356892    5.09138187560429
C         2.63782568175191   11.18926402456051    5.77929989449760
C         4.73116140850655    9.40595775343336    6.26109014093211
O         5.89816936805593   12.81161747155263    5.24205017977482
O         1.76687618181624   11.66017113584336    6.35480553481491
O         5.13080063474096    8.78097996207813    7.12548213210771
N         2.89997195833572    8.76520810180563    3.95779227715439
N         5.36103533833326    9.45958275897864    3.31332404888502
C         1.68415963634778    8.42292480183281    4.37352105621614
H         1.31351161830303    8.93341733165654    5.25286852404350
C         0.91221968233046    7.46161999315356    3.74461375307296
H        -0.06658502278746    7.22100856249550    4.12524681851032
C         1.42965186674101    6.82563387068729    2.62701431158601
H         0.86129469969776    6.07264766161087    2.10425506696416
C         2.69862079120113    7.16941099717501    2.19604470109442
H         3.12014638527293    6.67896616207095    1.33504597923663
C         3.41885579749244    8.14417671651299    2.88415430231600
C         4.78702238662045    8.54346099280778    2.51483733418164
C         5.46989300926767    8.00370241838642    1.42682759129575
H         4.99858570007924    7.27935367658927    0.78426671681640
C         6.76837815585521    8.40622265254667    1.16845012987237
H         7.30861064312312    7.99862069866335    0.32860784588961
C         7.35701842288555    9.33410671272630    2.01255669186713
H         8.36916492705318    9.67019636480465    1.85972539643205
C         6.61229332788251    9.83255506899998    3.06793068738740
H         7.04307733590383   10.55581599155135    3.74774495608288

