83
CSD_code = MEPLUP | q = 0 | S = 0 | Stoichiometry = C27H51N3OZn | MND = 4
Zn        5.96942933748446   10.11748216662534   21.84165233052088
O         4.79402859563226    9.28863359778185   23.05745998972841
C         4.72180129523410    7.97474901927585   23.12227589194408
C         3.49241862948844    7.27341168399814   23.05631192825692
C         3.51010364464482    5.88900487645359   23.09957079026232
H         2.57304181586039    5.36731533497293   23.02989334664468
C         4.67349602112692    5.13884460619004   23.22578264687228
C         5.86593708023694    5.83734314085841   23.33694829814193
H         6.79814613140871    5.30435618136228   23.46696749488662
C         5.89994052786728    7.21754702949771   23.29240194171435
C         7.20282684422928    7.94631821302605   23.47337609534331
H         7.05976502661972    8.68365421306327   24.26597868587774
H         7.98521401674244    7.24501043170629   23.79773878475887
N         7.63586716547063    8.67794029322663   22.26807791748189
C         8.95169543193376    9.28440189495255   22.46690314912145
H         9.27807790750234    9.68242034959079   21.50121943228080
H         9.67411431160565    8.51437945714513   22.78039098691471
C         9.01915434194425   10.41009021533846   23.50214668455449
H        10.08061668446523   10.62606710458300   23.65210484471138
H         8.63129658998832   10.06616069052469   24.45893058029774
C         8.36048778254343   11.72886709443349   23.09850622002305
H         8.75743748287541   12.52422197233517   23.75287821245069
H         8.65879015345148   11.96104241613056   22.07242001589709
N         6.89660640789968   11.75625162337585   23.14424621265468
C         6.44197966232516   13.02520944661807   22.58095222926373
H         6.82907350507583   13.87750213255691   23.15594937507406
H         5.35441532335129   13.05604003609353   22.59489551104535
H         6.77634933969131   13.11647445472940   21.54978333856383
C         6.40404497605488   11.66927128105658   24.51444890116424
H         6.79160603419238   12.49156061737809   25.13145781907244
H         6.68704569714596   10.72378635570840   24.96541016165936
H         5.31766305886266   11.70876730492938   24.50052253774900
C         7.64176722534767    7.79856134258147   21.09079867876739
H         7.81735335823153    8.42288012986314   20.20996713181462
H         6.63540891708221    7.37837991796887   21.01411118345769
C         8.65546061874375    6.64815238607550   21.09122745720238
H         9.66415268367429    7.03881942136467   20.95222915706168
H         8.62183609626200    6.10622533167375   22.03507586857687
C         8.32006472430473    5.65406988108355   19.97943527119572
H         7.27146433444746    5.36615881666014   20.08927308536585
H         8.43519673520175    6.14157535390352   18.99353764294547
N         9.11646948508390    4.44137254269581   20.07498652292620
C         8.52213477243062    3.35793412186807   19.31824758437185
H         9.11614513985325    2.45691987040764   19.46469634882262
H         8.46963538914055    3.57043357290009   18.23861173858238
H         7.51515660743646    3.17135751592369   19.68674724301090
C        10.49088102497265    4.65118514234186   19.67062519551159
H        11.03807847379194    3.71574376393251   19.77639066560143
H        10.95652787560769    5.39189680443017   20.31682320833598
H        10.57698592877199    4.99096968624680   18.62533906594523
C         2.18370759410080    8.04562953852622   22.92950500722748
C         2.18565260271134    8.82262732999795   21.60654948030355
H         2.27958629828158    8.13434678897102   20.76799567785912
H         3.01923770507434    9.51987894412544   21.58277232291688
H         1.25947956525326    9.38391479825134   21.49414799776406
C         2.06812728297907    9.02387820475279   24.10578714480019
H         2.92705406171059    9.68706813714333   24.11689295442885
H         2.03678420959499    8.47680557051178   25.04631251045287
H         1.16095148463175    9.61943669288249   24.01762552375076
C         0.94266871118183    7.14654731855724   22.94437014081328
H         0.93137616829364    6.47070520619560   22.09193841907540
H         0.05133857210495    7.76949264298612   22.88760831301423
H         0.88775106638115    6.56582310149604   23.86257255188375
C         4.69066050480688    3.61720702918833   23.24853811825176
C         3.29385769299895    3.00438374040289   23.11601568083754
H         2.65388274722110    3.31084224806617   23.94004220671297
H         3.36947810999898    1.91830370615909   23.13435305187563
H         2.82767549568376    3.29344229967364   22.17693890055340
C         5.54591868783159    3.11124591957108   22.07727248121860
H         6.56873561254509    3.47085444393627   22.15125179888994
H         5.12659577169743    3.45949929402187   21.13471370375453
H         5.56659197799422    2.02271734406728   22.06462483365147
C         5.29568241468937    3.13498429918436   24.57453546325895
H         6.31764575208296    3.48449156942586   24.69185908071584
H         5.30095372401086    2.04709660904856   24.61523133325804
H         4.70969242567783    3.51038524015950   25.41090017881915
C         5.76608520140489   10.76222174370366   19.92962296669343
H         5.16907774552369   11.67512472158107   19.89053090267880
H         6.74516963749533   11.04086343579715   19.53340381768870
C         5.13686412021776    9.76536371040959   18.95162410695876
H         5.07845775391289   10.19905955407820   17.95017746441397
H         4.12890984148962    9.49992723396130   19.25993290455136
H         5.71995924706766    8.84887074569627   18.88392755649733

