60
CSD_code = MEPPAB | q = 0 | S = 0 | Stoichiometry = C30H14F10IrN3O2 | MND = 6
Ir       -0.61088548832436    2.20510134838958    3.81043084352666
C        -2.32525807256055    2.21406619801270    2.75929156073574
C        -2.57760774784909    2.79607758606079    1.52421538067705
H        -1.78626211032506    3.23062472548584    0.93296848032810
C        -3.86425663445341    2.82274083645591    1.01772217719080
C        -4.93924719227875    2.28102990527947    1.70151073796177
H        -5.93612495994422    2.30751566990082    1.29384965593202
C        -4.69048587633105    1.70294353611958    2.92787585882641
C        -3.40764369681792    1.65414448612507    3.48155610697863
C        -3.05384077043620    1.05246285666793    4.75593309563598
C        -3.95308301308223    0.55336288428658    5.70282257393105
H        -5.01343205388323    0.62228299723750    5.53479659034485
C        -3.48741598978863   -0.01138398505559    6.87190177274722
H        -4.16752524192680   -0.38125443403925    7.62313173304703
C        -2.11032565125504   -0.09048805016226    7.06182285617436
C        -1.26860828100491    0.42825985500880    6.09244770539307
H        -0.19667393161564    0.37115111959339    6.22646150607240
N        -1.71654746180999    1.00635114884151    4.98554875311622
F        -4.08253760090405    3.38439384152361   -0.18244016236887
F        -5.74412430679959    1.16593059083469    3.57422521862095
C        -1.52241056686878   -0.74306132333038    8.27971690427189
F        -0.33922971297010   -0.21074789095930    8.62369908760067
F        -1.29347868731649   -2.05607477720234    8.07750545283027
F        -2.31838745284391   -0.65863953737080    9.34889550328963
C         0.20621535814509    0.88623330553181    2.52961513148288
C         0.07076232006394   -0.49793155539619    2.52182432034182
H        -0.59483259709499   -0.99604511144503    3.20977102391652
C         0.78410562187058   -1.26625364543145    1.62051556742821
C         1.65816345767237   -0.70838043242434    0.70165196373632
H         2.20978237456833   -1.32012372951635    0.00750113376961
C         1.79607357969831    0.66296944589818    0.70301350054488
C         1.09205949667818    1.48102663360202    1.59099254296919
C         1.16621774071191    2.93151543991482    1.65884664914103
C         1.92473850611963    3.76196419495923    0.83099370069071
H         2.54126943059390    3.34388775386247    0.05474934941077
C         1.88558240879940    5.13078813821572    1.00494252197313
H         2.46515923681934    5.78683426506070    0.37459329331694
C         1.06958038490730    5.64951351535951    2.00702227235965
C         0.33572000315060    4.78017945503868    2.79860440651551
H        -0.31883793025730    5.15056135193583    3.57783257161963
N         0.38721513329130    3.46339955653109    2.63762539273088
F         0.63484747423292   -2.60073918664940    1.63366894768511
F         2.65697969894104    1.19283115178136   -0.18982192011675
C         1.00189464761530    7.12826506170672    2.27143780566473
F        -0.23883545677268    7.54466610359130    2.54468769944373
F         1.43881342790862    7.85389418516131    1.23403056428212
F         1.76562986863481    7.47440836966521    3.32455230608318
N         1.04614226975967    2.32271153928381    5.21241843203548
C         0.77159881347006    3.11922383214391    6.24737433459073
C         1.66342205092418    3.30739812399984    7.29457637435998
H         1.36670107574861    3.96066681192488    8.10024716149913
C         2.88040096389128    2.65273761835962    7.26461959657451
H         3.59515204774118    2.77534233227515    8.06404517268739
C         3.16319477397123    1.83062981236377    6.18148220494425
H         4.09912723682154    1.29955559607822    6.11233260204416
C         2.21809415582476    1.69391781811856    5.18157155573543
H         2.39533892288206    1.05527331730886    4.32621379933521
C        -0.58968771931750    3.84829442809279    6.25285475259641
O        -1.28077132180414    3.70573255741298    5.20261519957391
O        -0.87872495482311    4.49726235797974    7.24010867616605

