89
CSD_code = MEPSUY | q = 0 | S = 0 | Stoichiometry = C40H44N2NiP2 | MND = 6
Ni        4.36250965208889    5.42218729981940    3.33307897208855
P         5.74177023278782    4.09518240569469    2.22843568684318
P         5.66125217022835    6.76639279331653    4.51193218882320
N         6.82321729209825    5.00026585477123    1.31835013877662
N         6.70408471580201    5.87458775152189    5.47843590521036
C         5.17353367284081    2.54398044360521    1.23205615754791
H         4.46248852484265    2.67545009740171    0.41836844357536
C         6.45548419098124    1.87476146439091    0.86583613372224
C         6.78568196491386    1.18992527881026   -0.28476616148642
H         6.09033604706915    1.12709512314321   -1.10980281938190
C         8.03166187577433    0.58013719102468   -0.36434592559145
H         8.30779402562953    0.04655215637667   -1.26195673873428
C         8.91635543769291    0.63789975055232    0.69841978365770
H         9.87543098370194    0.14670705206242    0.62469575241826
C         8.58278831541227    1.31992568879879    1.86238493000255
H         9.27538088485546    1.36370658441687    2.69119390002151
C         7.35908410583781    1.95298303401654    1.93063844875904
C         6.75517388078856    2.72315865570216    3.06331838061329
H         7.43895244742582    3.00817072443358    3.85885990096011
C         5.56931050307188    1.89408456208478    3.48788899935166
C         5.32285448774043    1.25910643138055    4.68670700577757
H         6.01720766326107    1.34205613926360    5.51053379953782
C         4.15935469697693    0.51052050266823    4.81942173341596
H         3.95110615024620    0.01097848985356    5.75421458456204
C         3.26837074180394    0.39513900772839    3.76600272111356
H         2.37254403998156   -0.19672853294250    3.88589475460835
C         3.51444001753143    1.03068146461966    2.55528641865690
H         2.81880073244934    0.93301567231696    1.73376494731923
C         4.66196831923517    1.78393973008067    2.42281781199706
C         6.32251896047827    6.26386647855328    0.81157903903145
H         5.92651633383915    6.17483651862978   -0.20649798207456
H         7.12804249324594    7.00206900831168    0.79575574878410
H         5.52952267933245    6.61936273219661    1.47576918969178
C         7.98870669904750    4.53825358092134    0.59437582958709
H         8.53426465741440    3.80589376828532    1.18142019661269
H         8.64580760104427    5.39285236922755    0.41576925111363
H         7.73677171147867    4.09202213849422   -0.37391316747241
C         5.02053775356643    8.30905055511790    5.47720866604246
H         4.26910502001230    8.16744596353972    6.25198125057445
C         6.27229711196189    8.99479702135622    5.91114206390400
C         6.53169797334843    9.68345090365947    7.07749455930125
H         5.79266339968075    9.73673896218718    7.86434276980023
C         7.76328565329714   10.31011873306961    7.22286489860440
H         7.98403010957296   10.84724552772374    8.13359588712184
C         8.70380453272952   10.26492470636258    6.20854323647006
H         9.65088055051372   10.76900824659311    6.33293682149791
C         8.44170729417681    9.57907005771233    5.02866225046182
H         9.17790748167356    9.54481058462289    4.23786225659525
C         7.23202341365793    8.92958554197101    4.89573937325692
C         6.69939578272057    8.15235497240749    3.73256038847729
H         7.42815152650799    7.87712484467556    2.97440400052822
C         5.52692030476661    8.96620650947505    3.24577437569525
C         5.33607419160585    9.59896163058468    2.03569951684534
H         6.07407581568450    9.52566465481436    1.24977397463551
C         4.17169917317829   10.33271184058477    1.84175959201112
H         4.00680475343494   10.83038028981988    0.89736754700924
C         3.22486784347075   10.43585650878096    2.84659935893455
H         2.32915214709157   11.01637703706382    2.67963662926582
C         3.41460827776244    9.80234249850678    4.06846131551814
H         2.67521957356988    9.89026999350452    4.85200476352629
C         4.56305026012091    9.06366643803152    4.26126873067638
C         6.19234805519126    4.60510584982822    5.95881224084181
H         5.74085324898332    4.68963750220051    6.95391717731948
H         7.00484471059861    3.87691289212180    6.01885403141772
H         5.44080282969274    4.23957897526310    5.25314215688435
C         7.82358852300948    6.35094491828244    6.26307870346018
H         7.51509517489738    6.79329002971732    7.21667909466941
H         8.38996364847293    7.09061318418585    5.70567362987282
H         8.48122556760094    5.50469984190906    6.47618744589525
C         2.83977755280785    5.57344050179990    1.67166110843570
H         3.47698132181741    5.60468679863222    0.78919766079215
C         1.93538291078838    4.36615634452212    1.72825833420798
H         2.43171281254724    3.54898173316124    1.20342521537221
H         1.01473455121209    4.59533631342193    1.17735778863034
C         1.57410573339116    3.88230134915706    3.14600608512619
H         0.66321086116032    4.37572159169988    3.48901550036925
H         1.36768235607073    2.81068409535027    3.10069938931835
C         2.65581701879908    4.11685827064428    4.16976121832237
H         3.19897030151950    3.23269732818724    4.49255594766321
C         2.75184022596078    5.25140156501334    4.90697289216367
H         3.33944519133770    5.22714720132498    5.82343785891165
C         1.83827058375711    6.44832145422055    4.79986353034292
H         2.29571600976076    7.27103622402193    5.35072156981287
H         0.89128829672624    6.20877923627358    5.29929820908284
C         1.55028372756357    6.92820156901753    3.36409545252087
H         0.66562679563333    6.42422707497979    2.97137266376578
H         1.32918291166538    7.99732671502306    3.39748501577728
C         2.68975322997199    6.70660956041177    2.40197746166468
H         3.23944699601069    7.59721844592711    2.10938443112282

