85
CSD_code = MEQMIH | q = 0 | S = 0 | Stoichiometry = C38H42ClN2NiP | MND = 6
Ni        6.59327654911227   14.43472418932343    6.37087063192212
Cl        5.67164528890184   13.63562613514318    8.44143911285223
C         5.28551673544986   16.14090203820312    6.02731132383833
H         4.68195684364414   16.42525497460005    5.17581720221394
H         4.74096686368318   15.92465374480327    6.94027015626085
C         6.61183068742125   16.52020584306167    6.08699379540247
C         7.37587625895789   16.06092623170908    7.19190049153983
H         6.90087731081636   16.05073359340790    8.17047535816229
H         8.42774776538263   16.33881689484254    7.22443178532693
C         7.25311725647320   17.28854167087969    4.96550173511181
H         7.22892642676504   18.34790759821562    5.22894251482003
H         6.70683455324615   17.16270199160399    4.03250072838566
H         8.29197919758986   17.00630423739312    4.81404742846311
C         5.56771887419339   12.98784261657175    5.58466311213039
N         5.81921517900304   11.68894521381076    5.87185493847049
C         4.88283670393637   10.87275427247437    5.30637622151106
H         4.90610494451702    9.80865095165519    5.41954752494278
C         4.00979077343348   11.66871725306767    4.65289422108742
H         3.13672209728154   11.43921012882263    4.07717592031600
N         4.43816651647111   12.95693651685388    4.83839985899121
C         4.73489739463513   12.89457888265807    1.26147427845349
H         4.18524433876277   12.09961254974086    1.76071126212996
H         5.56881539224740   12.44891615982228    0.72334080302950
H         4.07234584337484   13.37070778202905    0.54168628218294
C         6.09874019600350   14.98045212987346    1.57584428087758
H         6.42061063865949   15.73865771058632    2.28532558690866
H         5.55377706611566   15.46473675591491    0.76969743210412
H         6.98326211324092   14.51364801503088    1.14715349255049
C         5.24573785330476   13.92276852908627    2.27554041956834
H         5.88973623771271   13.40791836396617    2.99775121861532
C         3.71909437765497   14.05275050482202    4.28772825837695
C         4.07425026994868   14.52140376169797    3.02094324583744
C         3.29587761352008   15.52211938329997    2.45455573156061
H         3.53518902815202   15.89989961521380    1.47291899380244
C         2.20633215917373   16.03641777815812    3.13164792124998
H         1.60551643747913   16.80814362117964    2.67289218881359
C         1.88567236853991   15.57522319602969    4.39457697059298
H         1.03901866824277   15.99604541028225    4.91255749403113
C         2.63967469007303   14.58041000563603    5.00342334624830
C         2.31182060305910   14.08876534118781    6.39394562865111
H         3.22454947678356   13.68803112743141    6.84591328502207
C         1.26665757104024   12.97052965810315    6.32979486136448
H         1.01370985727065   12.64808662105139    7.33674681336302
H         1.64052073541132   12.10944840006373    5.78196546165420
H         0.36121340759929   13.32612931900001    5.84033560650080
C         1.80289695414412   15.20890649547225    7.30381396268868
H         1.85150927237723   14.87885286768548    8.33838235875656
H         0.77009293814223   15.46729352393061    7.07856849182328
H         2.41531768073988   16.10149258321360    7.20288088775262
C         6.92272673212627   11.17744570491805    6.65423742345500
H         6.59440675543148   10.25708541853861    7.14239290348647
H         7.15733661360617   11.91632415685168    7.43109189469333
P         8.63549790390912   13.62458828370003    6.07460152273530
C         8.90813079067052   11.96855278499148    5.32727772096449
C         8.09580309214656   10.91253737502658    5.75084446570895
C         8.33075698693746    9.63129939803276    5.27355066373075
H         7.70373367303411    8.81652033628751    5.60744748484619
C         9.36185331469380    9.38404374698595    4.38461731863416
H         9.53863434294464    8.38114660931809    4.02582547733238
C        10.16019457491374   10.42978292697050    3.95579224074432
H        10.96441015273965   10.24851741973579    3.25783648583988
C         9.93641040404361   11.71121946971722    4.42612791481632
H        10.56808706892060   12.51735379627796    4.08202207541588
C         9.70448685742474   13.37584951902369    7.53631537384558
C         9.17002484396175   13.54831155555665    8.80711237555549
H         8.12898538293332   13.82340234360036    8.91854105161961
C         9.96367435758511   13.35081257407525    9.92432684872945
H         9.54168485185197   13.48530604443204   10.90897585087513
C        11.28889004517454   12.98046814642757    9.77790346004820
H        11.91014430565335   12.82922869582175   10.64877985145125
C        11.82140373430385   12.79632453069743    8.51043967567740
H        12.85459547317605   12.50062298911360    8.39557326140135
C        11.03385280944515   12.98643062250872    7.39150780915958
H        11.45061430575946   12.83550696918606    6.40534606525698
C         9.64987575881867   14.67224396166121    4.98733280006566
C        10.64764961134877   15.51668234967350    5.46021155475418
H        10.90840816610576   15.50954454401750    6.50957846731467
C        11.30783501892077   16.36552857985154    4.58760302515897
H        12.08544197502847   17.01653894860106    4.96034483640542
C        10.97241773426580   16.38620322607891    3.24423952326401
H        11.48983701348568   17.05064568608701    2.56813518831959
C         9.96356863882093   15.56086583195054    2.76997566876997
H         9.69103790980567   15.58602075656836    1.72475666590965
C         9.30081513271371   14.71611826508216    3.63818129785300
H         8.49918565764543   14.08052424402230    3.28492312990726

