74
CSD_code = MEQQOP | q = 0 | S = 0 | Stoichiometry = C34H29N5O4SZn | MND = 5
Zn        3.55439229288763    5.38255379835255   10.07269044022648
S         7.01784490771618    1.53066250778572    6.25460693650298
O         7.31000381828394    6.48343355148849    8.79732056535494
O         3.86507524045469    6.99988364969409   13.82917412058517
O        -0.05708463083603    7.30062112200537    9.77423512811869
O         2.20278074234097    1.70915407701534    8.80747953001198
N         4.64072181896796    4.22180513493387    8.92790773337611
N         5.26348558933822    6.47772007854729    9.89382209435436
N         3.62270321023103    5.70651956702502   12.03819708485824
N         2.04812783705862    6.60492729704610    9.61994382693495
N         2.29564367566847    3.81405699529601    9.77884696894812
C         4.15451562941692    3.04702137969008    8.55845151641719
C         4.88364942055121    2.20585456620116    7.73961156575579
H         4.48193423928142    1.24942283388216    7.44505015770458
C         6.14569366511827    2.62894775328318    7.29958903607630
C         6.62883603112694    3.87394401150958    7.70726584956647
H         7.58965525650677    4.26332967532955    7.41500367756971
C         5.82820983554361    4.64336818527799    8.53572112090305
C         6.22179811775443    5.99906932680621    9.07844175110078
C         5.38687462180611    7.67795515611715   10.53928930271954
C         6.07252515959135    8.76915379098755    9.97960169484615
H         6.54411913026695    8.63690960201925    9.01966919290434
C         6.14991171766667    9.97990209564919   10.62662946083420
H         6.67826969304965   10.80045476281432   10.16335242719076
C         5.55271082287959   10.15544955633286   11.87133182697445
H         5.61520646787575   11.10605967310561   12.37847781490822
C         4.88572524037748    9.10227087089241   12.45146605473310
H         4.42053324649094    9.21911524668517   13.41841831313724
C         4.78105729375631    7.86041956461675   11.80928893851177
C         4.08159082658548    6.81102507268396   12.51519844443748
C         3.18689014050527    5.85720281084248   14.33487611281276
H         2.24377415261427    6.18138072952138   14.78194353226234
H         3.81225846591074    5.39588177319863   15.10509911281229
C         2.99533817968125    4.94346623982908   13.10390428300658
H         1.93495173166214    4.80818946825889   12.85887587676156
C         3.64894384423932    3.57463946613220   13.24569283443634
H         3.53367978767446    3.02324283151000   12.31595709078096
H         3.17486830487627    3.01646861698290   14.04909660847232
H         4.71028880531272    3.68219780635285   13.45899323345924
C         2.76473434104168    2.75926273023702    9.08229947091023
C         1.04182182271412    3.82487368992978   10.32587103290103
C         0.42226721101681    2.66379367135787   10.81842363592616
H         0.94946282292813    1.72812197525967   10.72963268294739
C        -0.82308953082027    2.70353099174029   11.39947127625327
H        -1.26644779285653    1.79288253281227   11.77520892236526
C        -1.51510142444867    3.90642193538026   11.50740552277561
H        -2.49336885399250    3.93522990037873   11.96233492131816
C        -0.94124149922163    5.05796339536847   11.02290145927684
H        -1.46529853520940    5.99897397903466   11.09381095215563
C         0.33249281822899    5.04902613502809   10.43669634851045
C         0.83485508216319    6.30632957551686    9.93273230617774
C         0.62845111482290    8.43175748817172    9.25314062174762
H         0.48505637655702    9.27189912509714    9.93729496653088
H         0.19590887266169    8.68074665655381    8.27941919878521
C         2.10121176971992    7.97756363489295    9.14630030578723
H         2.75377015920542    8.55295344759751    9.81415450878376
C         2.66292945397432    8.03915873143932    7.73139634436673
H         3.67321547079080    7.63779418305254    7.72833847413907
H         2.69024398134776    9.06930149306793    7.38510195192944
H         2.04984554893427    7.44744092630028    7.05498666113093
C         8.54242707262260    2.46860339392745    5.80628157367382
H         8.22002588093597    3.41682565287063    5.37716124541770
H         9.11008674892790    2.62959401811053    6.72219258631724
C         9.31757637814798    1.66041959783554    4.81665099482302
C        10.32262609038631    0.79996573214067    5.24008559410639
H        10.55287770785291    0.72460933068821    6.29312363586962
C        11.02864274595917    0.04382369469075    4.32187461656392
H        11.81067385290518   -0.61932182830342    4.66089619529496
C        10.73286355153432    0.13539599906274    2.97249618328113
H        11.28398867158171   -0.45537485708134    2.25616056703214
C         9.72690343088906    0.98510091069798    2.54406416773546
H         9.49057366504736    1.05780979442118    1.49285489071772
C         9.02153024479851    1.74218543117975    3.46121856761593
H         8.23428041860485    2.40215628585618    3.12639635645613

