74
CSD_code = MEQQUV | q = 0 | S = 0 | Stoichiometry = C34H29N5O4SZn | MND = 5
Zn       -0.48672175345976    8.74398071046346   20.13372846359492
S        -4.67604380768695    9.91595806738705   15.39648403657880
O        -4.13519973056214   10.52494051657668   20.79346217107449
O         1.59934457263013   10.97064034012127   22.87172525755718
O         1.26116339116511    5.44807946247646   21.84136981487007
O         0.37778635713667    7.74376273739482   16.23534447669433
N        -1.74316544026734    9.09189160487883   18.67396984422990
N        -2.00191107050532    9.67338915765075   21.12020799078278
N         0.79199594681676    9.95327911263928   21.06814397085207
N        -0.08795190250574    7.06812690184824   21.13802744449341
N         0.51574526314688    7.95443741504052   18.54369798704689
C        -1.39907166100477    8.75888848290115   17.44398526056108
C        -2.24605030737026    8.98646763740992   16.37242097909625
H        -1.92192506617705    8.69432804423707   15.38922990802731
C        -3.48760817772859    9.56716178201165   16.63051820727049
C        -3.82719905114468    9.90725922674324   17.94678835804358
H        -4.77829614092824   10.35895947130264   18.18026652887888
C        -2.91000048897727    9.65315949013518   18.94953375977489
C        -3.10510263077957    9.98886547354970   20.41171673980732
C        -1.90849499989536    9.90723559158529   22.46468624692227
C        -3.01884810163361    9.83412331921067   23.32308164950982
H        -3.98253078353247    9.61768827340472   22.89209524499201
C        -2.89616303124061   10.03171144460706   24.67798587956991
H        -3.76962874419572    9.95962335274400   25.30958186347715
C        -1.65675929548517   10.32243896618205   25.24094716476077
H        -1.56253619982624   10.47825505497482   26.30473348940481
C        -0.55350301396152   10.41445467021288   24.42595608631430
H         0.41473193734926   10.64370533510285   24.84441819157072
C        -0.64705320546029   10.20614433624564   23.04236639330463
C         0.56589421297300   10.35300389945068   22.27151303771390
C         2.67711077938008   11.03114629651722   21.94672009178269
H         3.54438381544709   10.53458192145196   22.38915253382866
H         2.91744910318800   12.08267593164960   21.76303603616303
C         2.14512172615707   10.31764714806743   20.68401338457313
H         2.70628060900159    9.40022526036791   20.46860807057064
C         2.13522707002694   11.19556165606390   19.43891644640500
H         3.15186062882118   11.46599985852156   19.16475896215344
H         1.55733963593800   12.09967874669369   19.61808112120546
H         1.68067830238192   10.64773948844201   18.61730195846324
C        -0.04194517328595    8.10369345526200   17.32733103191326
C         1.73316098671721    7.35612992770782   18.72089792469731
C         2.76671401708350    7.45216586247775   17.77387184383377
H         2.57302405520922    7.99218347718853   16.86161996164704
C         3.99732608162275    6.87838526015187   17.98993760816230
H         4.77249678345590    6.97951269328749   17.24426770692636
C         4.25121883417028    6.17047547881969   19.16097486760513
H         5.21736323234568    5.71965267003062   19.32858647339414
C         3.25554339282855    6.04701685678876   20.10118461032959
H         3.43337913535866    5.49771952692668   21.01317616668299
C         1.99552953349972    6.63216000515621   19.91272710251497
C         1.01038500284848    6.42322693177517   20.94933851837235
C         0.17319778609172    5.39359746349873   22.75507734081525
H         0.56001234658551    5.54077258966220   23.76654239962611
H        -0.28875405560481    4.40418903969823   22.68510705049469
C        -0.77626898177807    6.52239001195255   22.29549703113861
H        -0.86611546267815    7.31121944811880   23.05212833332041
C        -2.17050420442604    6.03884712900793   21.91707986123430
H        -2.67203330412744    5.62720918308603   22.78931068984263
H        -2.10989242329536    5.27703308818259   21.14281462416950
H        -2.75060853942337    6.87636701591356   21.53788678827328
C        -3.91451665186324    9.33639674042940   13.83197800123714
H        -4.63336470342473    9.66644294210822   13.07856575969473
H        -2.98030085435429    9.87869181591885   13.68674385663365
C        -3.72391933263666    7.85144410839465   13.76928132053702
C        -4.75883237079501    6.99485298579833   14.12291436619006
H        -5.70062088989573    7.40907005681962   14.45374436478638
C        -4.58330078771822    5.62477181169366   14.06403890292452
H        -5.39380885566052    4.96827834776190   14.34426939999332
C        -3.37162744477167    5.09664402542506   13.65064764770719
H        -3.23288078129981    4.02655315163557   13.61080410816675
C        -2.33830626821397    5.94406269633385   13.29068927718649
H        -1.38945624010799    5.54065562198228   12.97177946630357
C        -2.51276797601473    7.31519328051075   13.34896382338710
H        -1.69997463367189    7.96897911419706   13.06484671833375

