25
CSD_code = MEQROS | q = 0 | S = 0 | Stoichiometry = C6H12N4O2Pd | MND = 4
Pd        1.33403052825550    0.32881848424545    4.78405928578596
O         1.40685630676062   -3.41503810006609    6.06902188724279
O         0.05879064357209   -3.18677267281789    3.48616951376625
N         2.65041977264582    1.27220519649199    6.28313932504105
H         3.33677498568619    1.98757346091543    6.04678764582589
H         2.01816516553450    1.66149651531538    6.98863820778376
N         1.43516564075350   -1.14521274298136    6.04031390486925
N         0.25936623040653   -0.94640497002101    3.79391350768179
N         0.93255756453663    1.56269149029649    2.99918279739258
H         0.02222113544935    1.99873676275941    3.17274302639953
H         1.57048812485599    2.28634536796792    2.67048585595670
C         3.33241175583730    0.08977389167039    6.86735695037550
H         3.90342516191704    0.36578292443720    7.76475364567410
H         4.01988132947623   -0.30895739929391    6.11195817434238
C         2.27772115970039   -0.97693384780646    7.20351268895332
H         2.75335452797508   -1.93251852768958    7.45535562413630
H         1.67812404148652   -0.64618388538943    8.06533468392615
C         1.14310104757851   -2.35379936073077    5.52573141811075
C         0.42615473715466   -2.23245022865926    4.15354236108350
C        -0.19391202450495   -0.55924661902250    2.47633091718691
H        -1.21734577040044   -0.15718791608325    2.52693427253109
H        -0.19491930939338   -1.43431110476533    1.81521734682514
C         0.76207710756532    0.52431244918675    1.95167860917497
H         1.74416562830332    0.07599673300670    1.75987295392144
H         0.37722450884813    0.96178409903371    1.01996539601339

