68
CSD_code = MEQRUV | q = 0 | S = 0 | Stoichiometry = C26H32O5P4W | MND = 6
W         4.89403200801310    9.25874335053005    2.36302461023694
P         2.89757879594830    9.25988054348020    3.87481225339524
P         1.94027237347943   11.12621593149294    4.46602136542806
P         1.04152334190142    8.51742336099963    6.23758609844826
P        -0.90233452520626   10.97489279302032    5.66556235609587
O         4.62012595258407    6.15259520106119    1.96891190082922
O         7.06971521386826    8.66259165080633    4.54818115146878
O         5.06336876134688   12.37886126342294    2.68353950665566
O         3.06154006655069    9.92036545162585   -0.09726051475327
O         7.26694463684592    9.26431241454702    0.33348521302398
C         2.36383681510849    9.68916948380471    5.60510060301574
C        -0.38270390015966    9.64328120180260    6.57040703901533
C         0.12610974057606   10.83729943801239    4.11096423594078
C         0.65510767838514    7.84192420832446    4.58134182281878
C         1.54891439134984    8.11713625522924    3.53573706505339
C         1.36941203380397    7.53342740858575    2.28791068256924
C         0.30669918262266    6.67488206210240    2.07414725332336
C        -0.57554378179479    6.39359505131588    3.10732659814931
C        -0.39968608278091    6.96527853017362    4.35503990540959
C         3.48147575817150    9.94058297835111    6.62359650394841
C         4.48948218432106   10.96543242115530    6.10244648049945
C         4.19367504446290    8.61252716552995    6.88429584022953
C         2.87556774017329   10.47678864816893    7.91931440166390
C        -1.16494066555440    9.27842867638297    7.82696563868284
C        -0.26098252753973    9.21857996940298    9.05987852622338
C        -2.28778970384823   10.27970549993307    8.09933318697828
C        -1.77920884960835    7.89067639002861    7.61006259976993
C        -0.35475805108841   11.79226432060796    3.00108774172123
C        -0.24017151258092   13.24400389050780    3.45894445489020
C        -1.81330944250613   11.46619234133759    2.67140644040294
C         0.50399117062455   11.56708731716395    1.75452411822278
C         4.70393054637798    7.28127081942476    2.12030797313926
C         6.23227227812199    8.88758063735625    3.80534342350883
C         5.03516484251371   11.24083184851688    2.59332884649801
C         3.67522772613735    9.65327733989249    0.82936332487583
C         6.40387913561688    9.26366036313657    1.08323431942285
H        -0.01991627487101    9.81067376731234    3.75512332016776
H         2.06337906699038    7.75970244901019    1.48783970263405
H         0.16533557796411    6.22427747113712    1.10334598236722
H        -1.40124072946411    5.71781511690301    2.94082252319166
H        -1.08408723085609    6.72984334861965    5.15590797384952
H         5.32384497802794   11.05023795919263    6.79599171143429
H         4.88495700001305   10.66763487617987    5.13017143264238
H         4.02653959550454   11.94775160869001    6.00781198366186
H         3.49430679142803    7.87599262886277    7.28086963860319
H         5.00202416475985    8.74161995215507    7.60011379480461
H         4.60921718650785    8.22108060794202    5.95396612101473
H         2.27873349706410    9.70756698457682    8.40070545897800
H         3.65992811847422   10.78348381829497    8.60757733307156
H         2.24081113987006   11.33712597422534    7.70753823844907
H        -0.84331009320262    8.92624543279534    9.93122787991245
H         0.52735446523240    8.47972977115762    8.92027817904138
H         0.18443981404971   10.19097324409268    9.25491166687771
H        -2.83238477110896    9.99181634235800    8.99611281697861
H        -2.98900808033964   10.31134513547452    7.26661600582883
H        -1.88233703787525   11.27929698827815    8.24742414664063
H        -0.99194746028071    7.15575538246031    7.43586651569578
H        -2.45343120236393    7.90333223993258    6.75546197975257
H        -2.34195720169241    7.58568409926196    8.48977126752543
H        -0.59177465722339   13.91950773819441    2.68273541933721
H         0.79747682572469   13.48941206683062    3.68577694162856
H        -0.83729784115119   13.40471609080398    4.35630711543534
H        -2.17429843830448   12.10935788083960    1.87222630097142
H        -1.91226975142296   10.43033241461242    2.35034893787374
H        -2.44493929983891   11.61857132980627    3.54656028966035
H         1.54605265240419   11.82811359783378    1.95084308755450
H         0.15165462266426   12.18524729494958    0.93207998847186
H         0.46382619704211   10.52409015990933    1.44199327901540

