60
CSD_code = MEQSEG | q = 0 | S = 0 | Stoichiometry = C28H23N2O5PW | MND = 6
W         9.41809813166927    4.39944342993070    7.11383323289673
P         8.00627385792572    4.14491667351754    5.10249414021616
O        11.19389828321496    4.52276581059407    9.68252834379565
O        11.35965093120200    2.38722097078144    5.67885645538820
O         8.01140709249521    1.99349528038623    8.54772706096149
O         7.35881214086150    6.33289675167364    8.48297736828137
O        11.16227180855929    6.85004152009434    6.23110750531538
N         5.95247136469058    5.38707051341781    3.90081001319968
N         8.24189935963511    4.92861286827632    3.60571985545585
C         6.20060967007280    6.81898905635723    4.03403742079706
H         5.46240346293652    7.22778156474647    4.72892801118460
H         6.03159852914059    7.27024846540156    3.05361989505436
C         7.62360982531717    7.14483513869940    4.50616470376134
H         7.81595816445109    8.21258336090588    4.39742953622999
H         7.74170530561031    6.88463299840116    5.56468628845420
C         8.63326491926655    6.33258388621170    3.69299617158712
H         8.70058670629802    6.72673320915616    2.67491547677439
H         9.62562212601459    6.38078577632000    4.14767188209326
C         6.14830711337229    4.67811277255454    5.15018221699828
H         6.05958500097969    5.37192666342890    5.99574769717262
C         6.90824863054715    4.80378781793820    2.97268239211052
H         6.69617343179549    3.72181808542381    2.93242584193356
C         8.06090578844654    2.42491931334048    4.50619039965017
C         8.84017278965479    2.11672737959326    3.39279264343357
H         9.31592060900009    2.91686388991496    2.84418605289221
C         9.00525050705236    0.80276751316555    2.99779327244246
H         9.61246650860529    0.57451138956519    2.13407430819394
C         8.40250393343807   -0.21919458978944    3.71269148178435
H         8.53345129037715   -1.24582868865193    3.40454832691202
C         7.64327874936702    0.07837919253353    4.83198416574423
H         7.18005523430498   -0.71472238891118    5.40005136036166
C         7.48351311672388    1.39107083417356    5.23682810666898
H         6.89991982040511    1.61132568479363    6.11751539250018
C         5.20170758644092    3.54542881010366    5.39234906240616
C         5.03975937985237    3.09859302919839    6.70242472196329
H         5.58685222206067    3.58720438649631    7.49944625500309
C         4.19686080973515    2.04199120955854    6.98837898167758
H         4.08501961239787    1.70472049966525    8.00821092299696
C         3.49761702354256    1.41928087681255    5.96682269907539
H         2.83966374376322    0.59205640554887    6.18716575873380
C         3.63745550607724    1.87041259923132    4.66661863434372
H         3.08377602932778    1.39820476020294    3.86851295661607
C         4.48248172633252    2.92872097157308    4.37790181854789
H         4.56458747895198    3.28991405771673    3.36457630177539
C         6.82597872304566    5.31305131315288    1.56189826402801
C         5.60912803680523    5.74885456290399    1.05056516545498
H         4.73847159063387    5.75199431856616    1.68925646917611
C         5.51529699256154    6.16931180360442   -0.26401921336120
H         4.56643281761458    6.51146445810873   -0.64976670620091
C         6.63084391899748    6.14751547278668   -1.08387222409317
H         6.55707464754176    6.47868149182790   -2.10887957038686
C         7.83843246226777    5.68761233997745   -0.58726982019259
H         8.70866665991415    5.65298523606238   -1.22580133166307
C         7.93513439089709    5.26552983551928    0.72678398223026
H         8.87396602465733    4.89359236271278    1.10916113780491
C        10.54625053636873    4.48141283869501    8.74226749473229
C        10.67550025936593    3.12920258880996    6.21018223925134
C         8.47027809951018    2.85267599249998    7.95180481202718
C         8.11231728471927    5.63772519399558    7.97466490341368
C        10.48455223318568    5.95966044072539    6.46441926439441

