27
CSD_code = MEQSAF | q = 0 | S = 0 | Stoichiometry = C6H12Cl2N4O2Pd | MND = 6
Pd        0.28281385718584   13.58930756032311    4.70682451413065
Cl        1.47010660365886   15.55006078002364    4.96385600052073
Cl       -0.94652595684279   11.64100619134972    4.60989848323380
O        -0.09003177153968   13.82643132556749    0.75177789282704
O         2.57449054778260   12.89569513466904    1.53226286303148
N        -1.60741109462730   14.59564452821352    5.40787378903414
H        -2.29228110277611   13.84157414577744    5.52118531662448
H        -1.60793410472056   15.16972814614960    6.25038240306787
N        -0.39566404035688   14.14927357302968    2.96834806290799
N         1.70979115123009   12.82598453618237    3.62005852874310
N         1.54486754112636   12.76107386073619    6.37597806284341
H         2.10606662899210   13.55233821811231    6.70692868929037
H         1.11387513155759   12.30519034453078    7.17965020868011
C        -1.97594677890797   15.42352269093813    4.23593816634706
H        -1.31037505275135   16.29291610576746    4.21920882494242
H        -3.01701704301895   15.76256426741254    4.30233081546571
C        -1.76155620769412   14.60689924349592    2.95478532433841
H        -2.45427488248782   13.75007472940701    2.92715431609900
H        -1.92644180418020   15.22186825218923    2.06332765142293
C         0.29323502751732   13.71753318559186    1.89943052863335
C         1.66772840634501   13.11874251729858    2.30920499831094
C         2.89027602818770   12.43024908643978    4.34553596518790
H         3.53112728815855   13.30459068656889    4.54524001391835
H         3.45672730895759   11.70925536856716    3.74601020928455
C         2.42020674041653   11.80130480246338    5.66371114823778
H         1.82579231050163   10.90895953251659    5.44058769114983
H         3.28285526828578   11.51991118667834    6.28020953172657

