68
CSD_code = MEQYOW | q = 0 | S = 0 | Stoichiometry = C33H29PPtS4 | MND = 4
Pt        1.32862173681368    0.15583510705204    2.68084594328705
S         0.88948091610662   -2.15137072838688    3.11438359385247
S         3.48962801069851   -0.88512733891436    2.96698965084935
S         3.27438919456428   -3.44458549505066    4.43252944853373
S        -0.95727960169582    0.73498308582222    2.87230953352739
P         1.94670364547667    2.25456770186305    2.09691683947490
C         2.52862887634500   -2.16659463612100    3.51200777351148
C         1.83248671594343   -4.38731491704767    4.91163999449225
C         0.87375824290285   -3.80353734845250    5.72574328882006
H         0.99587179237342   -2.78860237852074    6.07302186835289
C        -0.25121806146387   -4.52599777951577    6.06746274968359
H        -1.00780601940456   -4.06394124742922    6.68349257499776
C        -0.42326041029120   -5.83433318027320    5.62580407394349
C         0.56158201059264   -6.40644571564324    4.83083844125058
H         0.44610601466282   -7.42213374054582    4.48139363410070
C         1.68745238369891   -5.68912984341656    4.46716796346975
H         2.44557699933640   -6.13205621639093    3.83939282501389
C        -1.65857000107937   -6.59501356849783    5.99549383978758
H        -1.86210507119999   -6.50080044478765    7.06055286582260
H        -1.55907610647274   -7.64839975244923    5.74696702655037
H        -2.51630017064599   -6.19328853029164    5.45623714480972
C        -1.01585525667225    0.08390906659332    4.50395649884496
C        -2.15002604219412   -0.58129612412428    4.95593500154506
H        -2.99675812247153   -0.68516821990421    4.29462398871494
C        -2.18207018942057   -1.11329768204595    6.23026488828651
H        -3.07045299029982   -1.63194397592384    6.56352990143287
C        -1.09181398363196   -1.00289963084652    7.08406475902973
C         0.03631339981244   -0.32663068292102    6.62982153111643
H         0.89351001049542   -0.22277800004170    7.28189336340856
C         0.07687153858367    0.22119293972691    5.36351527749895
H         0.95646931388685    0.78327096106134    5.03822377824748
C        -1.12100139186182   -1.57935896473004    8.46845216990219
H        -0.24517068366255   -2.20241103706807    8.64774087658505
H        -2.01525678080776   -2.17918328001828    8.62200030273001
H        -1.11537476529592   -0.77952833121329    9.20939505125158
C         3.65250855642321    2.33369055060981    1.48122903279253
C         4.68063851701462    2.08306350767568    2.38859309892545
H         4.43611801995519    1.89458124268166    3.42594794242542
C         5.99436438071993    2.07147569230830    1.96310267142643
H         6.78811161896651    1.87701375346722    2.66893993759179
C         6.29070998364067    2.29954554679607    0.62788402713452
H         7.31743332571228    2.28414768172285    0.29349259751968
C         5.27127576439252    2.53786098376258   -0.27834368794438
H         5.50262659190525    2.70797046579657   -1.31965070122030
C         3.95257927115149    2.55285731067693    0.14240997980472
H         3.15626665686711    2.73224562139182   -0.56588380200972
C         0.93648773974246    2.85239674787892    0.71489569195047
C         0.78855063156777    4.20480285808908    0.42952847982880
H         1.26517369324647    4.94402757783599    1.05829088060494
C         0.02532252089535    4.59402888971933   -0.65658425465101
H        -0.09533602850909    5.64412994587592   -0.87923401690690
C        -0.58685714431799    3.64146965403238   -1.45569703583380
H        -1.18488870702368    3.95261273680425   -2.29950816628123
C        -0.43978108965722    2.29268465069883   -1.17204642245349
H        -0.92273355302118    1.55308166482065   -1.79277201947668
C         0.32061134155569    1.89750475137108   -0.08779264455763
H         0.43967043999098    0.84653295654434    0.16385446371594
C         1.83400994543012    3.60051339720303    3.31660604957880
C         0.64704274258645    3.69939425041327    4.03894363058115
H        -0.13861520799234    2.97662589910252    3.86013956150441
C         0.48031526589627    4.71291231167939    4.96328450824589
H        -0.44068676852583    4.78388975701472    5.52235203103519
C         1.49472609528847    5.63420708004576    5.17196898279885
H         1.36729167352034    6.42464172150658    5.89678259497246
C         2.67290477193040    5.54281070874875    4.44951692848519
H         3.46170066441090    6.26382109609334    4.60766005939791
C         2.84734140663315    4.53044755349477    3.52183727222277
H         3.76716172597149    4.46572136217811    2.95824386610140

