43
CSD_code = MEQYUC | q = 0 | S = 0 | Stoichiometry = C13H24IrPS4 | MND = 8
Ir        0.89912948169231    7.50370847444298    2.51713337867667
P         2.70831422122108    6.13578151509917    2.26537744743717
S         0.66724720489806    7.42845506227014    0.08137718201697
S        -1.20918527052962    6.65076710458971    0.03992689717720
S        -0.88762059024367    4.83475370075831    0.99157880712592
S        -0.40583851274547    5.43856913279044    2.87758172487938
C         1.28883049356561    9.67807243598248    2.81616255735966
C         1.57270730248742    9.07112450161653    4.07918906573333
C         0.39142296189952    8.41047727056436    4.51806867870307
C        -0.66333641935695    8.70699818846036    3.57754883524664
C        -0.11759998360362    9.49117753540789    2.54061676539122
C         3.33255587340337    5.38796641955469    3.81320706782665
H         3.61806953122806    6.17426970693187    4.50729434074251
H         4.19089692657434    4.74990639915893    3.60926313620352
H         2.53181948968513    4.79865081845719    4.25553109094325
C         4.19546322385731    6.95836359154706    1.58645874770253
H         4.48406615275751    7.78369250775385    2.23197522549787
H         3.94687715992270    7.35091423636164    0.60252134666797
H         5.02056477295368    6.25279077815523    1.50545297748998
C         2.58870791750346    4.67568292560737    1.17525813489343
H         1.82782686087620    3.99768923369520    1.55772487217658
H         3.55129559826897    4.16727580566567    1.13580166064309
H         2.29896483648676    5.00073595341182    0.17736178216678
C         2.18514112080852   10.61579509615089    2.07259840620771
H         1.95356443176035   11.64645329593712    2.34851499535460
H         2.04861302425961   10.51404539657166    0.99804545360240
H         3.23050882017334   10.42703977159099    2.30496203494866
C         2.84008019159839    9.22809911175414    4.85699125694586
H         2.82484842194467   10.18273903686032    5.38649078595345
H         3.71254356556555    9.22149062396975    4.20626928257398
H         2.95054140966789    8.43653778915390    5.59449436890176
C         0.16973514231272    7.74190658198445    5.83483319357891
H         1.10477222318537    7.39430369165635    6.26771666703584
H        -0.49517932978677    6.88812098128320    5.72024951255670
H        -0.29358255113206    8.44240761758358    6.53245271002348
C        -2.10001563171825    8.35990268021758    3.78565577629757
H        -2.21180678062871    7.29868620590946    4.00928064939746
H        -2.68858384197530    8.58836745847395    2.90060469237831
H        -2.50081221954441    8.92604199614959    4.62790181148101
C        -0.87941298594294   10.15825767273003    1.44256347275577
H        -1.32650867030437   11.08225457796560    1.81415290111099
H        -1.67837334080460    9.51804701323818    1.07166838584851
H        -0.22735223223381   10.40168010254448    0.60744192034090

