115
CSD_code = MEQZAM | q = 0 | S = 0 | Stoichiometry = C59H52ClCuN2 | MND = 2
Cu       -0.79415490928368    6.75754137227283    5.13994014853639
Cl       -2.00265520870704    5.07975175278924    5.32615657862109
N         1.26963346695994    8.72683763405280    5.79897629959228
N        -0.02141884858376    9.38133898574866    4.16140581178095
C         0.24138645585741    8.33569180989229    4.99482354579364
C         1.64157884271543   10.00015468398626    5.47844907026402
C         0.81978980424605   10.41535670636363    4.44678275191550
C         1.17110788392464   11.75763645457721    4.04214243119210
C         0.73188371176618   12.68610599472089    3.13452191192131
H        -0.10282287219118   12.48836621134260    2.47762641175328
C         1.39737879880689   13.92761716576856    3.07842574488586
H         1.04676215240317   14.65694527142560    2.36264235740832
C         2.46220154041663   14.24189103266233    3.88627929625350
H         2.94227041988082   15.20587764812542    3.80195719661178
C         2.93922750573589   13.30759689112057    4.83740893690063
C         4.01972498954609   13.45904422159159    5.73983127378872
H         4.58237611078091   14.38110287701453    5.74539998962065
C         4.35407755401174   12.44060193638310    6.59762614298351
H         5.18609696834997   12.57441504403235    7.27371833182038
C         3.65819545575350   11.21542207460073    6.64290852299231
H         3.96560803540228   10.44498129552565    7.33508834519048
C         2.60215118881523   11.03778305324918    5.78736639175301
C         2.26683625220501   12.09087861809976    4.88836564839991
C         1.97774114850689    7.90344381323563    6.71254629628133
C         2.76525003280123    6.85871953036194    6.22773844067620
C         3.52409846667844    6.13327862420506    7.13495565905957
H         4.16345947548957    5.34314312107528    6.77174498008678
C         3.49121815984484    6.40554674085152    8.49226758018965
C         2.68320518133080    7.43789575762545    8.94896741516361
H         2.65283388291180    7.63870898178460   10.00756445743089
C         1.92737997222893    8.20562192080424    8.07783464673829
C         1.02644748381644    9.32491394411096    8.54663500886184
H         1.28492293207347   10.23369353766770    7.98942327062785
C         1.16378612339330    9.65790407086627   10.03543633547488
H         0.84039582931827    8.82180909136481   10.65082364056068
H         0.52936261911291   10.51011302305553   10.26993664687125
H         2.19110022314658    9.91584927325041   10.28439930135503
C        -0.42563298230876    8.99396788768040    8.26990263936795
C        -0.89705636724820    7.69313591869219    8.39205071697392
H        -0.20831642050604    6.89309864282354    8.62265022357518
C        -2.24247726946840    7.41523553100409    8.22639737287485
H        -2.59489626994707    6.39908045686570    8.31318750084064
C        -3.13244837672334    8.43837325269373    7.94936044439691
H        -4.18423821869831    8.22130921217147    7.83986464992545
C        -2.66947017953021    9.73597734297085    7.81149982640586
H        -3.35537902384902   10.53987872744902    7.58358200554649
C        -1.32168373538850   10.00967584556757    7.96485853164455
H        -0.96418666356051   11.02556717489801    7.85539516056502
C         4.32994230468121    5.61024521712594    9.44496092524071
H         4.32270561849758    4.55647528884157    9.17576674434977
H         3.96984840012019    5.71596565700419   10.46515394783506
H         5.36323013854887    5.95663939577338    9.40945629289325
C         2.85247053658662    6.51602051520605    4.75569041286389
H         2.16213972122483    7.15546354008875    4.19786664220802
C         2.40693914960644    5.07605715409516    4.50378511559703
H         2.96081204716122    4.36329445238363    5.10760056746884
H         2.53096048406145    4.82848981998090    3.45188920225248
H         1.35112279154489    4.98301206933051    4.75646355694527
C         4.25120545738633    6.84376700203894    4.28132107191479
C         5.22348393350717    5.87964787896370    4.05848584036602
H         4.99318152620788    4.83428951587736    4.19133081996348
C         6.49655594367596    6.24314829808791    3.65219742957034
H         7.24069856466530    5.47893793031422    3.48016296880676
C         6.81898894778092    7.57531290704011    3.46646271862658
H         7.81282304911176    7.85613266839459    3.15045625195880
C         5.85653060969747    8.54629576063254    3.68624120422412
H         6.09398423922601    9.59079710336310    3.54276739315746
C         4.58653149924039    8.18059442106820    4.08893274097115
H         3.84368243494002    8.94868092471736    4.25619958297366
C        -0.84598512818250    9.35047634506607    3.00370750522406
C        -2.21191652657224    9.60856883578148    3.09009517938403
C        -2.94341222481707    9.68391022000803    1.91425189133142
H        -3.99455302656313    9.92423006813842    1.96256113413597
C        -2.35994083610903    9.46101721939414    0.67636377260267
C        -1.01023131538796    9.14957069452934    0.62457873079717
H        -0.54889281811848    8.93238310440617   -0.32755413605422
C        -0.23422949469144    9.10315700047783    1.77234367305976
C         1.23077903828754    8.74132642227846    1.65383124719230
H         1.67098330708215    8.66797295501774    2.65382902114528
C         1.99932158216558    9.83107335125851    0.90582485833198
H         1.62358420092442    9.95616366767275   -0.10626999514539
H         3.05811602632896    9.58486239361754    0.86630823779538
H         1.89017610591385   10.78005271940315    1.42846550333935
C         1.32214042714920    7.35841917259380    1.03897404114616
C         2.03436778207737    7.07820428207549   -0.11727435200733
H         2.56658043483682    7.85900224799825   -0.63796906577438
C         2.07702190116388    5.78811562024390   -0.62147892130969
H         2.63813357361961    5.58751319127132   -1.52302409849681
C         1.40746184101545    4.76228326003922    0.01977697557251
H         1.44235459774228    3.75841940768930   -0.37704182846855
C         0.69113326485702    5.03283098097306    1.17408349698578
H         0.16127279496968    4.24423008026605    1.68679521734338
C         0.65024473328281    6.31893655891481    1.67625658873912
H         0.08543315987143    6.51787343210553    2.57973798966946
C        -3.18354143637099    9.51722444021187   -0.57292930183837
H        -3.66555705030908    8.55364416266057   -0.73907909034976
H        -2.56425600809180    9.73780324755791   -1.43880860782791
H        -3.96197520502905   10.27239469815737   -0.49024716811392
C        -2.89628943301692    9.80939019250035    4.42326343353446
H        -2.16354328397918    9.65683287385462    5.22264163724090
C        -4.00003092378401    8.76819574841761    4.61626769854245
H        -3.54825273057830    7.78672198883142    4.75035177227799
H        -4.66662516903263    8.71576967158815    3.76028180606563
H        -4.58253337240567    9.00300917079543    5.50297458524640
C        -3.36487526371910   11.24473059510182    4.50287613403544
C        -4.65711564364397   11.63724972336632    4.18323863095651
H        -5.39480264875741   10.90177499876062    3.90193537489743
C        -5.02094176770666   12.97242690144614    4.23419843492335
H        -6.03234134636522   13.26078564672761    3.98626159546698
C        -4.09803221731422   13.93606469269039    4.59972516064379
H        -4.38384681427173   14.97695688631323    4.63657047874939
C        -2.80660159142420   13.55531940279346    4.92335445784497
H        -2.07741393115472   14.29781338299652    5.21506347921876
C        -2.44775753092412   12.22158000278722    4.87654767086170
H        -1.44019875263573   11.93097066252987    5.13908182941544

