39
CSD_code = MEQZEO | q = 0 | S = 0 | Stoichiometry = C18H18Cl2Zr | MND = 12
Zr        3.96158265151045    1.78186797408688    3.44237290788331
Cl        5.62836487197766    0.78423047843433    2.15657336014832
Cl        5.37908421976718    3.45992457596617    4.22009761962895
C         2.43909714378960    0.22180692285655    4.54231395941355
C         3.66712039803951   -0.46527191288909    4.36102264793716
H         3.80952805734453   -1.37734259786249    3.79288495646296
C         4.64067598722554    0.14184694547764    5.19353170819788
H         5.65500695214432   -0.21160626321375    5.34210929215571
C         4.02069541304242    1.19964813370724    5.89085963458460
H         4.47407733180824    1.79807020627388    6.67181630541668
C         2.66769373446796    1.26116360687508    5.48285912276442
H         1.90851031418748    1.88594951429814    5.93945222820627
C         1.14061436901537   -0.09101078968487    3.83143308947778
H         0.33675359639519    0.49599664765825    4.29846998971862
C         0.82167042509529   -1.55747200766088    4.01815465745150
H         1.33748860808969   -1.99899471641599    4.86084152200885
C         0.00330210596272   -2.32705514269780    3.31651687570098
H        -0.08453798099125   -3.36642668869320    3.60346078213175
C        -0.80326714987023   -1.92626449868749    2.12047104586904
H        -1.16543727042596   -0.90585060549629    2.23944172679124
H        -1.68160281244907   -2.57069294268079    2.04709191824516
C         0.00804166041579   -2.07251536706377    0.81362237086318
H        -0.44795552486482   -1.44518917060698    0.04151022696966
H        -0.06900237298488   -3.10664480202569    0.47411752081002
C         1.46863014539101   -1.73694274321244    0.92973715566941
H         2.12953934295339   -2.42913043943427    0.42526391445419
C         2.00910647149909   -0.70743232413943    1.56478675165530
H         3.09304217190863   -0.60028572629562    1.58493500920780
C         1.24132587686666    0.34036653328529    2.32413429719404
H         0.23236150290817    0.41661293318150    1.91136504268378
C         1.91989514109804    1.68648123337623    2.20409925242660
C         1.74083303014766    2.80393145604894    3.06508202597289
H         0.95427148893151    2.92214144162835    3.80001945135929
C         2.63736010836005    3.81870000980548    2.66564207080133
H         2.68517787448633    4.81952022770842    3.07630382461954
C         3.36763069160017    3.34768702537380    1.55429849712158
H         4.07533510108219    3.92244688523957    0.96837168168899
C         2.91881413314631    2.03960770814929    1.25642821113541
H         3.20837219095423    1.46432827931295    0.38470734517271

