54
CSD_code = MERCOB | q = 0 | S = 0 | Stoichiometry = C25H26N2Pt | MND = 5
Pt        5.40687182615161    4.66122854714646    1.57496588675294
N         5.73751432065986    3.79981795368836   -0.41637598439644
N         4.37342969872688    5.94237075789884    0.45871790747146
C         6.45495841204481    2.76614507320298   -0.80351246274298
C         6.68718575045706    2.46455142575242   -2.14980584040903
C         6.12535116246500    3.25763026614539   -3.11398182267221
C         5.34063031888413    4.36726589913215   -2.73733102350377
C         4.69862203889172    5.20815765186708   -3.65705865716654
C         3.91436843139113    6.24095853041823   -3.19467762176263
C         3.77397867435907    6.50762112652800   -1.84087640106013
C         4.43755181789251    5.74283624577670   -0.87440225589258
C         5.19745901913123    4.61670898666326   -1.34301235351818
C         3.59297397776245    6.98113457617338    0.98493305684288
C         3.83519413438930    8.31931091943677    0.68338297157312
C         3.06616263546237    9.32160619854584    1.25543764535227
C         2.05345492992050    8.97672952831802    2.13968027893946
C         1.80178849673146    7.64877992979972    2.46355763981388
C         2.57024879534347    6.65924905603889    1.87643344546324
C         3.35100060049048   10.76211383879868    0.94760220700238
H         4.08498521204491   11.15506208821551    1.65227974522889
H         2.44828432155934   11.36302393243844    1.03202945844743
H         3.75655072889282   10.87206837554354   -0.05563759142983
C         0.70119850334284    7.29487535910883    3.41878562719761
H         0.65104669066024    8.01434737987612    4.23362593469765
H         0.85556228786421    6.30116770001584    3.83194391419668
H        -0.25995768736344    7.30516247316359    2.90380127931655
C         5.29970389000326    5.74969718092674    3.31237526387977
C         4.39934766265467    5.11593923372551    4.31291566565669
C         4.24010360070980    3.82177234453006    4.56290553989493
C         4.83485572697698    2.63676555934509    3.85108664122067
C         5.73957051286914    2.86900556857693    2.66293831159050
C         6.91078365645870    3.62287285871535    2.69939211189062
C         7.32192360355535    4.40085690016697    3.92767957255735
C         6.75439869781377    5.81930872344128    3.81333056345370
H         6.86943592035866    2.13074679986912   -0.03152633540592
H         7.29246058191540    1.60860801068135   -2.40622224523316
H         6.26695281297935    3.04584992105882   -4.16434833483136
H         4.81404296778024    5.02276624661272   -4.71387689142680
H         3.39193534317904    6.86950434350561   -3.90216830151881
H         3.13579491518020    7.31793004772833   -1.52392864423196
H         4.64466602829329    8.57389432946163    0.01345967499693
H         1.45469291271333    9.75566393406266    2.59099842901444
H         2.40423042214253    5.61528382950351    2.11262387401711
H         4.95862636107105    6.77879596137409    3.14062069031915
H         3.82423167399240    5.80858550352046    4.91869898305458
H         3.56555785979166    3.52545644158303    5.35858292458764
H         5.39717664284300    2.04897037447431    4.59085066331135
H         4.00011844077025    2.00336752423785    3.53151561939584
H         5.68291513579036    2.05614372452034    1.93392286592298
H         7.71517351747684    3.37998284094153    2.00419009144338
H         8.40933151040048    4.43008199917703    4.01410055204331
H         6.91809207434957    3.92394112552247    4.82252528400717
H         7.34697942875558    6.39267199718828    3.09242088209346
H         6.80758300101765    6.33531285585082    4.77683156456170

