73
CSD_code = MERJAV | q = 0 | S = 0 | Stoichiometry = C33H29CrNO8Se | MND = 6
Cr       -2.98640476169549    9.51643305515032    8.86904748413026
Se        3.08457141681987    4.19009130965953    8.29379300658382
O         1.93069148276992    5.11730745327431   11.39987426447250
O         0.54695758210100    3.32859977913984    7.61105512767736
O        -0.61623860978564    8.32238108241445    7.29833453193378
O        -4.62094888460369    7.67317683340147   10.57860538445355
O        -4.77315366436581    8.38801889609158    6.73019369307503
O        -5.45461024306973   11.13156565222514    9.43369012246102
O        -2.19907950904204   12.08866040990735    7.52236391802999
O        -1.89558843020760   10.78649365877039   11.37104553919872
N         1.69608572367291    6.94261757793686   10.06383991710694
C         0.56398598616960    4.88385831207352    9.32030615505689
C        -0.74687021928082    5.19244705830866    9.54716621107202
C        -0.46003405960904    5.91871565358468   10.85640610152072
C         1.05910744012524    5.71765914451876   10.49613973570396
C         2.93875120146517    6.04639689582388   11.75755109063835
H         3.85008931527747    5.48443135145505   11.95810859698932
H         2.63585355974763    6.59602010441072   12.65938834987708
C         3.05346541670861    6.98465182581648   10.55283507555027
H         3.33916879407725    8.00233024017346   10.81881494931417
H         3.76207513613700    6.58138789551054    9.82242613900616
C         1.02675089301469    7.83414731905390    9.30749471951521
C        -0.35009825760052    7.95348238898470    9.48172441839904
C        -0.86417069795726    7.38611484026467   10.78473527413007
H        -0.42784802384101    7.92259530719775   11.63354762864353
H        -1.94869416064581    7.47377206075594   10.83314162993664
C         1.28867011878882    4.10647713688793    8.37904511407183
C         1.17463383516048    2.48814023223282    6.65461748948771
H         1.86423718179121    1.80728844788838    7.16959423071607
H         1.76310701072334    3.10543859252971    5.96320963773863
C         0.09232037951079    1.72130782826385    5.91955890684229
H        -0.47527888671726    1.11376804770153    6.61913605671451
H         0.54511218345415    1.07649724686205    5.17233041770665
H        -0.58956385352529    2.41227492998175    5.43079495351809
C        -1.94880847252389    5.15023602016260    8.76103189965244
C        -1.86623531998283    5.24735927131323    7.36720949471222
H        -0.89461159565516    5.30420742204656    6.90251417823108
C        -3.01214939310380    5.31514423554337    6.60263213571240
H        -2.93822080933842    5.40541354561179    5.52852113972094
C        -4.25971378507033    5.27234898748767    7.20718520606681
H        -5.15424591902315    5.32644235074136    6.60559334575199
C        -4.35376237845574    5.16575272815743    8.58533558760097
H        -5.32302807944851    5.13103744949226    9.05951480617415
C        -3.21090305829909    5.11623092956621    9.35936005778926
H        -3.29144588836516    5.02544460565925   10.43108972663062
C        -0.88566857756732    5.22152914953227   12.13603409156824
H        -0.37895023506888    5.67463837943045   12.98552009559574
H        -0.61635200998203    4.16884989028978   12.09820412457510
H        -1.95837612172843    5.31420307899518   12.28521475094699
C         1.78822823344088    8.71148694861624    8.41302893268264
C         2.80357030817252    8.20402238353132    7.60606930271211
H         3.02316532486405    7.14593012161552    7.62031708764296
C         3.49996924358033    9.04053516054351    6.75374662794982
H         4.27823851038490    8.63478473771290    6.12452229929526
C         3.19814309343802   10.39151288059675    6.70169120958523
H         3.74414018620283   11.04288318375308    6.03568536561407
C         2.19076844351648   10.90489270426161    7.50421460312449
H         1.95134164287348   11.95711607575917    7.46513065588874
C         1.49090031842343   10.07341549920576    8.35620628660457
H         0.70324470981866   10.46828015421700    8.98416744674319
C        -1.21799990504715    8.48412672753469    8.48902629533533
C        -1.15363059213178    8.83268723455915    6.09757200514808
H        -1.22533967113781    9.92650171298608    6.15530417850850
H        -2.16084791719860    8.42480109215206    5.93810020432591
C        -0.21835262688600    8.42400845351496    4.96868887515851
H         0.77698442036943    8.82148494201878    5.15156685771722
H        -0.58823078804772    8.80784185147144    4.02261002209060
H        -0.15250550809943    7.34077096405594    4.91160926633383
C        -3.87621924439941    8.25787837908250    9.91962411826015
C        -3.96963916820106    8.78620781202699    7.45464604438385
C        -4.50516234169679   10.51641939218539    9.21212023463912
C        -2.40180389105065   11.03611150953399    7.94520978577894
C        -2.22994353309239   10.26221346675220   10.40276578242012

