83
CSD_code = MERLAW | q = 0 | S = 0 | Stoichiometry = C36H34F6O4P2Pd | MND = 4
Pd        0.06920654064404    5.86867113172915   10.33027538997955
P        -1.75393768768771    4.65062324337021    9.88258904037471
P        -1.03795092700682    7.51027625848226   11.40597688664283
O         1.20515103003203    4.60677473967326    9.05674113792124
O         0.81868603548666    3.35513238885566   10.84374743989178
O         1.93745445431768    6.82872886068962   10.60693312595026
O         1.50524470895902    5.92198284311462   12.58122709537223
F         3.52827018583910    2.57508139278578    9.58984140832519
F         1.83091344413327    1.25517159710603    9.44446933208081
F         2.31637482515854    2.56236293782917    7.80893761979754
F         4.54714211123666    7.01845146209466   11.33937730330066
F         4.06131411969722    6.40781655074653   13.34770225152549
F         3.46535879474997    8.35283501234826   12.64083427247903
C        -2.75165214499889    6.36698654258946    7.75970553313017
H        -2.32122728003613    5.75294462038560    6.96061391386684
C        -1.71209926661148    7.45003662455918    8.08443367693715
H        -0.78627450095377    6.99296323496921    8.48479598266797
H        -1.44050190871034    7.90958968842942    7.12943354990693
C        -2.20209042547283    8.58913509727744    8.98932847451329
H        -1.42782545888393    9.36563456954810    8.98530521359507
C        -3.46951383386779    9.19668023619102    8.36884523085175
H        -3.86833436858643    9.97409961946945    9.02344736911540
H        -3.19925976246700    9.66986998549491    7.42250902625146
C        -4.54393457499325    8.14670452063323    8.09743572070587
H        -5.39587953408341    8.62524264227548    7.61054167403106
H        -4.90927438998330    7.72785785480448    9.03596886561136
C        -4.01056034838911    7.04014304000453    7.19102568676933
H        -3.76041981667388    7.47770342523982    6.22229606650403
H        -4.78781115147766    6.29185611697520    7.02325618445152
C        -3.13771497355521    5.40383940868788    8.89632201775344
H        -3.69100272097012    4.56793252869551    8.45348272640814
H        -3.80581388962015    5.88954222716524    9.60751054482331
C        -2.45980224176940    8.21986333964425   10.45548248440087
H        -3.27615147291770    7.50470318206007   10.52433671936657
H        -2.75961130312368    9.12681323520357   10.99424412905719
C         1.34631459258394    3.58917794492931    9.76489371251443
C         2.26692531622102    2.48901610632816    9.14813442182299
C         2.21822920249762    6.51474006280564   11.78085408800336
C         3.59559807483980    7.05622998221476   12.27677807894402
C        -1.46835122963223    3.09935908672235    8.98095262497332
C        -0.97130234423470    3.17729581959298    7.68152907745185
H        -0.76504556852996    4.14518335481278    7.24343829835024
C        -0.69615680627211    2.02149093254239    6.97563351173254
H        -0.29612967537586    2.08565285295242    5.97513696977206
C        -0.90701346155900    0.78457549748782    7.56430644634642
H        -0.67632214447919   -0.11743594979632    7.01830578200611
C        -1.39120605357094    0.70516780636569    8.85926618993506
H        -1.53793981429923   -0.25822060703391    9.32339966810296
C        -1.66931922870877    1.85760900175352    9.57268858955568
H        -2.02221825038369    1.79737144890530   10.59179472075542
C        -2.52562800541893    4.16271826037361   11.45119502136247
C        -3.86977636804889    3.82227414744734   11.57279603743497
H        -4.51512926107277    3.82522723740671   10.70587721444588
C        -4.38034731305476    3.46417461462638   12.80795630965897
H        -5.42468057106860    3.20403086533654   12.90091682934767
C        -3.55399234200916    3.42857550979452   13.91939124126649
H        -3.95738389634064    3.14185761554794   14.87910880682811
C        -2.21219579760233    3.75144675481912   13.79819348304391
H        -1.56575670432744    3.71285941778380   14.66108411237062
C        -1.69539922044228    4.12950410822610   12.57180813419011
H        -0.63888878377015    4.37736786408029   12.47437864798740
C        -1.76931461612658    7.20954307202820   13.04829698997897
C        -3.13977564403196    7.17076767220862   13.28865512242045
H        -3.85072645721991    7.34796166458752   12.49726764843784
C        -3.61903295545660    6.90261921291291   14.55890412371435
H        -4.68515971786031    6.87425328325224   14.72957318480348
C        -2.74268357880241    6.67302502857476   15.60483515023897
H        -3.12313481323986    6.46659021964812   16.59393945677596
C        -1.37707661231719    6.70364940408190   15.37388586582499
H        -0.68560514231546    6.51937019528107   16.18206127384402
C        -0.89259507814958    6.96219647532321   14.10578203797627
H         0.17168207009597    6.95127254292578   13.92330888000215
C        -0.00033331639416    8.99216918276185   11.60125518534972
C         0.01577119119057    9.76688385223775   12.75532897558232
H        -0.59676997467250    9.49143435854018   13.60192959020868
C         0.82756032676857   10.88581825135585   12.82248869533386
H         0.84735242213770   11.47674223123986   13.72594491926661
C         1.61841056294450   11.24123512739416   11.74338534011069
H         2.26099730290855   12.10610898578309   11.80718036530028
C         1.59347006998584   10.48066478020963   10.58540258594346
H         2.21431606294951   10.75273456620344    9.74520838627999
C         0.78845189477492    9.35981537617855   10.51138041139860
H         0.79753938935146    8.74194462207334    9.61909469864443

