126
CSD_code = MERPOP | q = 0 | S = 0 | Stoichiometry = C62H57N6Rh | MND = 6
Rh       22.04478145345425   14.77673573966378   15.56697292389071
N        20.74190285078290   15.87435292997877   14.48292323805594
N        23.34834947132736   14.80879531787602   14.02825762190546
N        23.35613317980907   13.70420540201097   16.66081834597271
N        20.74758100993173   14.76443389670422   17.11455362720348
N        20.81151512047620   12.18154832330626   14.47945412117645
N        22.87397240262246   16.68661640598906   16.36644800459714
C        19.53970196247215   16.35356287398340   14.90347734441313
C        18.91090485461331   17.08603689997948   13.84079968744732
H        17.95634940023322   17.57031059844874   13.91728639843170
C        19.74082315710783   17.02024608776325   12.77381734360053
H        19.60746147470514   17.43964543043814   11.79509248240215
C        20.88866379384282   16.26330539019525   13.18596942744851
C        21.98956777128675   16.01304264890442   12.37154643053125
C        23.13369891326117   15.34134188624977   12.79301771325808
C        24.28634661892720   15.12539264281673   11.96471317695497
H        24.37398476682698   15.45347809911926   10.94672302220435
C        25.18775331591274   14.45087270248735   12.71542222374502
H        26.16686896922864   14.10954808971306   12.43919681935806
C        24.58677553506194   14.24482257970262   14.00306572243313
C        25.19488189980201   13.54502456328743   15.04045978435063
C        24.59557673617012   13.29842838034376   16.27158847710048
C        25.20721738169788   12.53262223757583   17.32096204562597
H        26.19010242888301   12.10520900838714   17.26877475594624
C        24.31028945175074   12.46519425851887   18.33187391011556
H        24.40584888077559   11.97227095473045   19.28029608651568
C        23.15009573519870   13.19703715251091   17.90801570878792
C        22.00617456378127   13.35647042013148   18.68511746618411
C        20.89881631159381   14.10522062568403   18.29675494205780
C        19.74957075262218   14.32880571455268   19.12721382491042
H        19.61882427293463   13.91683835471683   20.10944850100205
C        18.91460075635669   15.13564775802666   18.43192058039639
H        17.95708703175469   15.52069763637322   18.72596030186223
C        19.54221968922525   15.39382026628997   17.16678264816365
C        18.96986073988750   16.16209147227148   16.15802080857420
C        17.66283621475857   16.80775574049949   16.43360853843180
C        17.63675116732231   18.08410320409374   16.99666671142649
C        16.41433175831703   18.68348788126491   17.25169179923380
H        16.38796435663631   19.67270880005782   17.68765097486163
C        15.21961804149220   18.03864660977921   16.95792282062865
C        15.26749517230390   16.77069596300711   16.39916799861564
H        14.34486457395290   16.25778047523411   16.16576466489195
C        16.47544401145058   16.14273253998335   16.13132198036357
C        18.92522456211081   18.78465582271036   17.31590972531717
H        18.73625988803068   19.77103627443492   17.73255595558993
H        19.53203722872441   18.89349554018360   16.41664150708261
H        19.50432047145218   18.20517955388922   18.03542906258897
C        13.91104308453114   18.70891917900621   17.25149409387151
H        13.07871234017747   18.12020360179371   16.87445125770033
H        13.87652156286991   19.69649306789024   16.79366111857238
H        13.78493320851224   18.83637831456998   18.32653685658697
C        16.51892619314568   14.77336448096627   15.52579790241439
H        15.51527433913463   14.38494076199409   15.37288997907681
H        17.06756920365816   14.08804251639048   16.17077698150640
H        17.03597258194377   14.79736677141740   14.56707892921390
C        21.93390765203104   16.47943227900011   10.96329193635267
C        21.44097311426214   15.61710989091130    9.98378868514408
C        21.38939187409149   16.05369260816361    8.66794700876072
H        21.00762664084884   15.38689543924555    7.90744193391674
C        21.81560256181981   17.32332989210650    8.30966517129810
C        22.30213682828041   18.16640939683792    9.30009542043988
H        22.63733790388166   19.15884781738995    9.03158985943900
C        22.36707986018811   17.76112961393278   10.62322475553695
C        20.98029514881610   14.24271153175888   10.36066264697171
H        20.19910018182433   14.29402036367732   11.11817920090099
H        21.80209947019938   13.66805145843403   10.78673665095809
H        20.59516744595892   13.71205660059157    9.49378144387249
C        21.74988550922411   17.79307400249510    6.88749660500561
H        21.45124200647398   16.98546271660655    6.22413505666331
H        22.71895440669154   18.17085646333319    6.56463930863743
H        21.02801737330222   18.60398363385954    6.79090327307686
C        22.89539267712714   18.68263364629381   11.68358764346811
H        23.19705850604956   19.63379620799380   11.25159013610491
H        23.75826461872981   18.23610856321163   12.17845070489573
H        22.13012235700329   18.86981316265673   12.43744011780355
C        26.54747024026782   12.98314805796253   14.80140194789250
C        26.67495624561891   11.69338023926437   14.28623003320366
C        27.94530441131160   11.18024736839865   14.06752173411824
H        28.04717169602633   10.18084934212974   13.66796262127186
C        29.08308366600949   11.92059647168215   14.34959386312896
C        28.93364514530145   13.20276824266241   14.86217402498248
H        29.81449603594353   13.78883268035230   15.08570485019785
C        27.67953312432160   13.74452164422452   15.09202294609493
C        25.45161274023760   10.88519857071534   13.97932592064821
H        25.72075433197640    9.91753767146429   13.56372137058550
H        24.81501500399585   11.40933290608164   13.26751646800739
H        24.86233897306756   10.72749296183161   14.88207560362189
C        30.45310580352654   11.35718787705661   14.11834991528282
H        30.39848340494260   10.39297850862957   13.61942383002350
H        30.97241392596637   11.22578912514465   15.06756818782521
H        31.04664518513691   12.03463503811920   13.50610670263810
C        27.52407012002690   15.13036440910003   15.64484842371043
H        28.49451100251083   15.58254521423529   15.83448158012219
H        26.95947618862175   15.10599479775750   16.57682414170696
H        26.97540299727414   15.75885277371326   14.94333946695767
C        21.96007071091642   12.67550611863283   20.00336070440893
C        22.39222076441062   13.33057066073624   21.15472565630478
C        22.33761501275577   12.66679893042116   22.37176942600032
H        22.67305201911372   13.17477480149880   23.26549870097373
C        21.86208948194415   11.36798311826673   22.46271371671664
C        21.43550599915731   10.73243269083598   21.30374062958453
H        21.06256426290818    9.71953659844001   21.36435744197208
C        21.47718062329030   11.36693515435008   20.07297673915503
C        22.90827339567240   14.73751431457846   21.07170230854747
H        23.21829233602970   15.09255529597433   22.05158794317744
H        22.13316242652538   15.40276159724105   20.68991952627026
H        23.76302991204512   14.78866581870286   20.39674865214864
C        21.81409520153958   10.64948031004476   23.77755142058800
H        22.05326187951456   11.32093980808086   24.59849381789179
H        22.53066291414241    9.82819157660401   23.78386603971105
H        20.82457877521530   10.22779648744120   23.94660636268806
C        21.01740156070594   10.67337942330398   18.82775458050753
H        20.64153934663615    9.67906040443174   19.05458077162544
H        21.83733512365270   10.58420715033351   18.11584430187028
H        20.22957131431803   11.24487186599991   18.33865972571786
C        21.27065636040060   13.15168227603126   14.88419809143795
C        23.01345022597676   17.74395733537965   15.57055639338449
H        22.93123906414765   17.56421725825614   14.50724252851888
C        23.25292212385033   19.02092143701309   16.04858510687992
H        23.35167694400517   19.84463515516187   15.35890051502273
C        23.35815947808892   19.21493271584095   17.41642344976738
H        23.53551507678755   20.19856987426244   17.82477678428458
C        23.23523974164212   18.11178316858687   18.24572931329001
H        23.32091655268233   18.20678932855781   19.31691633997275
C        22.99614783442952   16.87176904337769   17.67852484020670
H        22.90242454376023   15.99345124472171   18.30268260549996

