70
CSD_code = MERTUZ | q = 0 | S = 0 | Stoichiometry = C32H26ClCoN6O4 | MND = 6
Co        1.12294161869204    9.60051323008378    4.41909575845981
Cl        0.12974366177774    7.65642038604135    4.43406972188617
O         3.64830886040426    8.21491106609081    3.78931042328181
H         3.16478009543947    8.47514723923293    2.90879147715185
O         0.14261398659031   10.06544184224286    7.15737946474922
H        -0.55303877814074   10.42450050178300    6.47376874688388
O        -1.17679170604118   10.87716464154393    5.15893014419931
O         2.18554016358524    9.14795765905206    1.94517471525247
N         2.81616898723599    8.65516713637704    4.75369137506782
N         1.09997128443211    9.52126321909465    6.38040436865261
N        -0.53343069485116   10.39126847541872    4.16041077268195
N         1.12360465644902    9.50740125626253    2.57097401948768
N         1.99011910507271   11.32168832228203    4.38848333219057
N         3.35206767358544   13.74824631695108    4.48483716593370
C         3.03732789258728    8.32791997224319    5.98264883223295
C         2.05381856866927    8.84393686645001    6.92582763413244
C         4.14615849485721    7.46875535960780    6.42304697603742
C         3.88956492916925    6.36472138957755    7.23297013136036
H         2.87433958882061    6.13253357667235    7.51588372036564
C         4.92987951134536    5.55474783366396    7.64599595061561
H         4.72399171103471    4.69732993606853    8.26873363345796
C         6.23048504510343    5.83898374008451    7.26230459072801
H         7.04159313592753    5.20681501052537    7.59153672510798
C         6.48804896502624    6.92978709611552    6.44939570434532
H         7.49941984496240    7.15008352513982    6.14213694899855
C         5.45180283866224    7.74020127325790    6.02429472877750
H         5.65392211733148    8.59074114308180    5.39093780546752
C         2.16880441292939    8.59366920371798    8.36993881877595
C         1.07595712647227    8.10268291880935    9.07941790080364
H         0.14915504923362    7.90719204426103    8.56288078346859
C         1.18969094085563    7.84764922632761   10.43315278799992
H         0.34205260676261    7.45767712534570   10.97614907664950
C         2.38406649974943    8.09117658909550   11.09046463256565
H         2.46971123364039    7.89250885032037   12.14836316718507
C         3.46923309989152    8.59329430721297   10.39054047174648
H         4.39977750355096    8.79004573902365   10.90174989839224
C         3.36744869534063    8.84143588775433    9.03504317635118
H         4.21211271891832    9.24006509530044    8.49228468899450
C        -0.97071497539268   10.36326014650514    2.93575821568995
C         0.01281711092312    9.86659162448403    1.99887467194264
C        -2.32452051043003   10.77594920923424    2.54612573145883
C        -3.06050363942688    9.98084874825350    1.66865176407509
H        -2.63228238667623    9.06465472652145    1.29209725248832
C        -4.33904109495186   10.35407496984694    1.30357943505229
H        -4.90446057766632    9.73167722163634    0.62592789925123
C        -4.89757697893950   11.51815162349894    1.80706799646684
H        -5.89696049456037   11.80786477705942    1.51762960945723
C        -4.17562140365195   12.30356009966850    2.68920428830422
H        -4.61042253474321   13.20722184260497    3.09047232519974
C        -2.89609547749423   11.93530627325251    3.06233138768075
H        -2.33637298954625   12.54676736971299    3.75326175782672
C        -0.17986463290027    9.85003425158538    0.54278731838792
C         0.21108653567160    8.73753278224997   -0.19715386165042
H         0.65168860056774    7.89201331536714    0.30781456084938
C         0.02260446219350    8.71435986842473   -1.56631131367420
H         0.32084375855082    7.84452266884342   -2.13256443779040
C        -0.54739205831452    9.79996345605193   -2.20982526372182
H        -0.69498043717439    9.77945261744655   -3.27953687667347
C        -0.92335021967513   10.91571649066381   -1.47959825280117
H        -1.36010525751205   11.76811591401857   -1.97892300012713
C        -0.74101382676232   10.94558060766001   -0.11027101196924
H        -1.02507261605045   11.82128701353654    0.45450398494990
C         1.57168800164421   12.33106517419242    5.15912139357568
H         0.67173690156078   12.19004945572943    5.74188404521338
C         2.25936116664077   13.53495111953313    5.19819360681965
H         1.92182037337297   14.34871261022861    5.82346205094009
C         3.08183093028091   11.54322588266895    3.64910830869809
H         3.41817923043693   10.75663898287233    2.98692290130420
C         3.75235973174818   12.75610950892645    3.70793244916028
H         4.63707386321634   12.93259464561262    3.11355079317099

