66
CSD_code = MERXIQ | q = 0 | S = 0 | Stoichiometry = C14H36B10MoNO3P | MND = 9
Mo        2.34431323747796    0.77051537776726    2.42536731252768
C         3.80596515320325    1.63458901369115    4.26100060733338
B         4.54754153569901    0.54536628784485    3.21815408547527
H         4.73172767228048   -0.55889113754573    3.66037964136662
B         4.48850436115027    1.14804093842286    1.52719322640741
H         4.69623347643261    0.46074296112120    0.57675130075312
B         3.58140534797670    2.60553720669930    1.55723307644838
H         3.02097148133148    3.14081217854273    0.65645274608823
B         3.08087481167389    2.85414954642556    3.44285902155155
H         2.19008889109871    3.44680815630806    3.95894650081795
B         5.51443119666492    1.67249943323872    4.23450177741824
H         6.06141079358523    1.20926856725649    5.17620028266092
B         5.96103775997867    1.37882551153076    2.53860863197648
H         6.94994661383350    0.78183726323480    2.29227281039541
B         5.36759749768344    2.72641818561106    1.59360547318559
H         5.90614837232974    3.15459006363758    0.63704337137420
B         4.38145161296644    3.76189966809435    2.67144723823835
H         4.26806871518450    4.92302130578195    2.49233436650657
B         4.63232798174699    3.15879160072920    4.32231800194744
H         4.55306345091436    3.81716831454453    5.29583799402864
B         5.96244592668299    3.04777163734736    3.20564148998513
H         6.94441558192300    3.67114096519203    3.39237039662398
C         0.87351016241938    0.36126137309566    3.59636939347946
O        -0.03626552963131    0.24857370439830    4.32699375377983
C         1.23544980438341    2.33302711497923    2.14317196352563
O         0.42784399844004    3.12709210115429    1.92372948068103
C         1.27368958027743    0.39640028366151    0.86264563577595
O         0.58420176830787    0.32297274465183   -0.06091011775390
P         2.58904406139665   -1.72461684208275    2.38348854601596
C         0.99350500482808   -2.51228711937805    1.86244598254917
H         0.23134958666713   -2.16469644684081    2.56735856214175
H         0.74506722009026   -2.07431009057422    0.89284743883341
C         0.95139340521814   -4.03331354404709    1.75374252955321
H        -0.01438476841946   -4.33767823536646    1.35384854513217
H         1.07326660590730   -4.51406300908161    2.72113602936219
H         1.72111009286836   -4.40505404411910    1.08206852875646
C         3.00048763752759   -2.78563383309564    3.86543066478117
H         3.08587446014334   -3.82302175213710    3.53466611552318
H         3.98778372310828   -2.48262990675498    4.22453303720147
C         1.97317612705723   -2.68044774013244    4.98551998246539
H         2.34744393374756   -3.14461159205132    5.89741050757123
H         1.04820894805474   -3.18101368207363    4.71071282294932
H         1.72774704797177   -1.64198219961839    5.20189842358196
C         3.79506189361060   -2.46239568856925    1.19064320887038
H         4.76375193757378   -2.01180210483748    1.42336224957907
H         3.87291906059078   -3.54135100342915    1.35204545983467
C         3.42524585067913   -2.16144155256245   -0.25607281338139
H         4.24600723382970   -2.43158376458842   -0.91741369596108
H         3.22271338462267   -1.09806212289762   -0.38177261425345
H         2.54381786527426   -2.71905861233320   -0.56453708051802
N         3.18257629323367    0.95216887727786    5.48103404028348
H         2.26659078727934    0.64448349049321    5.11416184582405
H         3.75498108038838    0.11190742615172    5.62314117747531
C         2.93631588499571    1.52964469650234    6.85400526482809
C         2.06968987570806    2.77769792198508    6.75590813156647
H         1.16348155074204    2.57488792974321    6.18828667117331
H         2.60355067947557    3.59390263381911    6.28148518881344
H         1.77817251063081    3.09628213413020    7.75326678089607
C         4.26133990886272    1.80662867027412    7.55441855168210
H         4.85181271804576    0.89681183655534    7.64463490183358
H         4.07099772701989    2.18518249592145    8.55503325391957
H         4.84439165806229    2.54548427590327    7.01518428042436
C         2.16924258812812    0.43797947678154    7.60818124963550
H         1.21258122125170    0.22995789039085    7.13143802801103
H         1.96655272210860    0.76327006090509    8.62471433699115
H         2.74253122570414   -0.48646529767715    7.66442440345080

