57
CSD_code = MERXUC | q = 0 | S = 0 | Stoichiometry = C26H30Zr | MND = 12
Zr       -9.29241942437356    0.00285349861859   -4.95131389581930
C        -7.41978504287677    0.14840711751263   -3.32091222724461
C        -8.27967686437924    1.19155501503719   -2.90604371821793
H        -8.73058089888679    1.26507810294652   -1.92223397256959
C        -8.33157954871811    2.19447398954208   -3.88631194997417
H        -8.81389037999562    3.15660987776917   -3.78003555770474
C        -7.44600466965142    1.81829275883566   -4.93156488071078
C        -7.02839964027657    2.52885255112067   -6.08130279514796
C        -6.06465221087972    1.95533096544042   -6.87126960657747
H        -5.70522423587067    2.47756328591378   -7.74642249975903
C        -5.51499928598014    0.69980332976255   -6.56379973020882
H        -4.75861629526723    0.30051607770565   -7.22496968183281
C        -5.88981980080184   -0.03106656078227   -5.46207646741228
C        -6.87362587118980    0.52357570965696   -4.59401739382990
C        -7.13945944238272   -1.05926665979471   -2.46245439159230
H        -6.57020164845715   -0.76329814560703   -1.57256951958694
H        -6.52590361400486   -1.77264669433333   -3.00999195618291
C        -7.58506114513738    3.89245641058060   -6.36876524445119
H        -7.29102648466282    4.59103189488596   -5.58503124658415
H        -8.67395266530288    3.86703791373765   -6.40135141465905
H        -7.21453618426635    4.26566017304027   -7.32014947694001
C        -5.25029655542104   -1.36837438827335   -5.21069332959866
H        -5.99896934844644   -2.16255928371427   -5.24337593123743
H        -4.74828153682163   -1.38909969535079   -4.24348936259351
H        -4.50830092588143   -1.57547883452375   -5.97876770424390
C        -8.70571282446546   -0.70222392403615   -6.96125751824554
H        -8.07695262859269   -1.60570223364093   -6.88674674241270
H        -8.12515336942774    0.04832826898937   -7.51849124440022
H        -9.56321401795982   -0.96894852120268   -7.59675101112119
C        -9.53477119616697   -1.68953253497817   -3.04354945738866
C       -10.63243628965231   -0.80622318839772   -2.95608034846326
H       -10.87158983686153   -0.19771289492320   -2.08868968469072
C       -11.46525749579970   -0.95420363214362   -4.08248586211676
H       -12.44285440729276   -0.50756532331963   -4.20791530504229
C       -10.89981564042297   -1.97435263564368   -4.89692478632343
C       -11.37264600444006   -2.57171005223183   -6.08994692914232
C       -10.65969774173973   -3.62523528841489   -6.60256881097389
H       -10.99422409084828   -4.11188349333604   -7.50757445477862
C        -9.51544527698112   -4.12126340368536   -5.95644959164856
H        -9.02592990337634   -4.98649359063011   -6.38155393145734
C        -9.01692273113443   -3.57558872138569   -4.79725221654863
C        -9.68451775246345   -2.44385109280450   -4.25122554892214
C        -8.45058282936735   -1.75033645299099   -1.99972335910753
H        -8.22879919376675   -2.78278532981790   -1.71974974051267
H        -8.81908701448439   -1.24547164475938   -1.10133659511681
C       -12.62856045619495   -2.06438459862788   -6.73551826532300
H       -12.51615168399277   -1.01237541471284   -7.00410856652229
H       -13.47122488291717   -2.14969776596548   -6.04967889776080
H       -12.85504060705035   -2.63180090587041   -7.63466526410236
C        -7.87499268405720   -4.25453408220093   -4.09409507336121
H        -8.23288398928635   -4.73241897750078   -3.18140768038253
H        -7.08605536375485   -3.55866811393356   -3.82109675370175
H        -7.44691244383990   -5.02587718748164   -4.73083287834601
C       -10.71571256960299    1.49282649505969   -5.79093644496892
H       -11.17030037557333    2.09376117365035   -4.98396672986718
H       -11.54329436138943    1.03888485142950   -6.35521216913454
H       -10.22369661716193    2.19153180578111   -6.48309418344117

