59
CSD_code = MERYOA | q = 0 | S = 0 | Stoichiometry = C27H21N4O5PRu | MND = 6
Ru        3.09880693859185    3.15875826725537    1.38538103308563
P         2.34861448896438    2.24238803760280   -0.53495143210688
N         2.84146597544160    1.26351785738308    2.17150828420041
N         1.10379962461876    3.55753522720068    1.75845238002167
N         3.22770707853139    4.90428164874959    0.28482220265470
N         4.97123047535286    2.61129913392435    0.69775278849872
O         1.51403389726614    0.81330493843095    0.35191821236832
O         0.72393870464414    3.18653484274682   -0.47665003460696
O         3.11682376281518    3.59037535231485   -1.59523017044846
O         3.90043603439338    1.21123492584322   -0.77535979715732
C         2.04351999687712    0.42892305500939    1.46390866836482
C         1.78674899092678   -0.87766840791220    1.93037102818768
H         1.13379172027248   -1.49585278030705    1.33582317485952
C         2.36515250773203   -1.32250403392234    3.09066206400614
H         2.17417467727986   -2.32139895781942    3.45258748625765
C         3.21245259625610   -0.46245721320144    3.78825438120146
H         3.70014142648520   -0.77277248910765    4.69748720640258
C         3.41234315568162    0.80445407099240    3.29357005038902
H         4.06096774458189    1.49979882715060    3.81360854486220
C         0.27116732331362    3.48637882857221    0.69295779362840
C        -1.10840840683734    3.73919469716230    0.84841222486468
H        -1.72469725900888    3.67579972571849   -0.03353109111548
C        -1.62083727723795    4.03731685481781    2.08386378689315
H        -2.67547989115498    4.22943417318693    2.21020576717530
C        -0.75428194854927    4.07711146365000    3.17577966337746
H        -1.11315589567222    4.29555341176501    4.16792907478740
C         0.58132764284762    3.83365948579221    2.96131423833336
H         1.28228986479674    3.85959283811488    3.78749429345272
C         3.22030893881684    4.76038559360895   -1.06171415850972
C         3.31746645597862    5.89125497634816   -1.89981289559118
H         3.31981752538601    5.71969535187118   -2.96403303133686
C         3.39297929132921    7.14783533563971   -1.35760343368454
H         3.46459124782975    8.01762868438594   -1.99290621615892
C         3.36408441071326    7.28053106531053    0.03014527751957
H         3.40734605878426    8.24859975801138    0.50114088593482
C         3.28435593291827    6.14168043987748    0.79591039788533
H         3.26551413299677    6.20856879100434    1.87753408825486
C         4.99667438683711    1.69734940642073   -0.30094686994433
C         6.22671668424544    1.26365598341455   -0.83950190802714
H         6.18958859350869    0.52989730611290   -1.62810757864525
C         7.40610417511026    1.78095523067921   -0.37110162778089
H         8.35056107127842    1.45543134592573   -0.78008945178560
C         7.36078991098454    2.74397668867955    0.63650337781927
H         8.26123461434196    3.18771293399289    1.02788231129406
C         6.13391332413010    3.11857074385431    1.13018323351965
H         6.06335973953283    3.86168271758559    1.91599386247609
C         1.73811866657253    1.49720010447261   -2.10256323825685
C         1.11506887882638    2.28260723284487   -3.06137926682865
H         0.98370340253432    3.33764067697182   -2.87895236760529
C         0.66002958211484    1.72371620443437   -4.24211511046171
H         0.17709550064676    2.34804822839533   -4.98129130318623
C         0.82094982413207    0.36959848595422   -4.47923761311512
H         0.46575536659017   -0.06784919662889   -5.40190697421052
C         1.44020093985687   -0.42018690335765   -3.52610579274228
H         1.56977846167749   -1.47912162229552   -3.70310695506174
C         1.89582284233586    0.14073766684689   -2.34656750841143
H         2.38198362375106   -0.47779385807090   -1.60854397115286
C         3.71670768046421    3.91141008953197    2.96606756554003
O         4.09960478656394    4.37838675706498    3.94928444981463

