66
CSD_code = MESDIY | q = -1 | S = 0 | Stoichiometry = C26H37P2Zr(1-) | MND = 13
Zr        2.64108771509383    4.11449080116801    5.35609275921866
P         4.97046672388421    2.75693717677337    5.01712582131210
H         5.11980503112160    1.49105937847283    4.42527635087025
P         4.36268987387461    4.71782640740807    7.29382689503927
H         3.62558441149193    4.92571897128529    8.46962145260401
C         0.98941719502307    2.50012064331942    7.05913518844274
C         1.81531124447367    1.88611913193560    6.07757015179663
C         1.20863991763929    2.14192148825999    4.79057633887281
C         0.01319830914017    2.86888091860164    5.02107559735637
C        -0.10709616869951    3.08515758688286    6.40969953542733
C         1.25415230709638    2.53186842769076    8.53622300711942
H         0.61948062013486    1.81729979134243    9.07044944883598
H         1.05043106806254    3.52749562816089    8.93434401681085
H         2.29652501916096    2.28719910601027    8.74375671431275
C         2.66128633353140    0.66896894210101    6.35617332379831
H         2.01323005198303   -0.21607177909912    6.37990584770774
H         3.16096459622801    0.73958289321668    7.32067795539253
H         3.41690575413078    0.50384106497231    5.58894202054352
C         1.60487495751812    1.37282366408702    3.55220057014901
H         1.41573103909147    0.30340143715157    3.69783801391727
H         2.67201132820644    1.49262085625033    3.33188324970501
H         1.03190015655008    1.68882611220666    2.68109261313958
C        -1.04464467702545    3.23684847945531    4.01936074549498
H        -2.00625290463148    2.81501562816019    4.32438964839129
H        -0.81033774664831    2.84213186399343    3.03311834353891
H        -1.16855524401577    4.31814175722250    3.94382297419444
C        -1.19454730642380    3.85965500739001    7.09219004761294
H        -1.51661710196551    3.35071726467650    8.00208173766963
H        -2.05717020147713    3.98226847391010    6.43934622836490
H        -0.83391700665403    4.85237849462595    7.37224570536879
C         1.70764705253644    6.15539061097132    3.71968935206854
C         2.92633293378542    6.50755158774439    4.34183883534197
C         3.94584143583464    5.65509678637815    3.84776490541913
C         3.34033828139929    4.74676515117949    2.93078040885339
C         1.95458846704398    5.06350094473326    2.85350119664127
C         0.40196293629887    6.86765787664894    3.93692200507443
H         0.54088634771953    7.94850217367888    3.86737157815312
H        -0.00098690702560    6.64273688089258    4.92811117837446
H        -0.33624175719716    6.57712708507273    3.19044366930822
C         3.15665192272567    7.63169840349284    5.31226628355389
H         3.64593918473399    8.47918015980086    4.82022734865774
H         3.79903698403749    7.29878280129508    6.13371337069288
H         2.21447494381554    7.97485810032029    5.73631171727773
C         5.41666415482735    5.88467801073068    4.06252148795621
H         5.69555523099441    6.87614202551409    3.69301221506021
H         6.00740600050482    5.14121818423724    3.53077623333107
H         5.68015005398633    5.83383020187855    5.12363784118223
C         4.07823709356455    3.86591767839946    1.95754021391762
H         4.48537815335639    4.46418414558541    1.13583233527715
H         3.41793070109845    3.11501766471222    1.52467038703780
H         4.91356751968093    3.35184999678298    2.43817885015096
C         1.06286585823769    4.60561043553731    1.72897283413817
H         1.37225842156789    5.08882977973880    0.79555673834651
H         0.02363048090732    4.86942971325535    1.90747194289404
H         1.12112585003998    3.52973063111911    1.56860842768822
C         5.30956543712298    2.20534268265958    6.68661342306128
C         4.94891946611896    3.07894129738315    7.74214491826650
C         5.14163088707133    2.66841362420140    9.05762622046904
H         4.85027435544223    3.33311017139171    9.86288021686698
C         5.69369596247425    1.43166627624851    9.34545827832321
H         5.82345184584680    1.12293009570689   10.37558297116557
C         6.09265686306357    0.59679250105137    8.31204783005421
H         6.54252839751297   -0.36367026494074    8.53294717331153
C         5.90590555533804    0.98445997142656    6.99774164845008
H         6.20473133896072    0.32398849862313    6.19198927952403
H         1.58824325065642    5.16749249890520    6.35130438110097

