75
CSD_code = MESDIA | q = 0 | S = 0 | Stoichiometry = C27H44AuClN2 | MND = 2
Au        2.68726921277640    5.82638595210387    5.26384991989395
Cl        1.41070651329096    6.29018014406668    7.05713249376865
C         3.81627237706487    5.42370063546068    3.65976745264085
N         3.64635659673361    5.83534140376168    2.41179341197744
C         4.70752016604207    5.37832670456968    1.51818994005589
H         5.23078965890151    6.23493949374881    1.08439638291889
H         4.29166866482050    4.77697469985284    0.70570983668645
C         5.60246983320847    4.55292976548501    2.44956852361748
H         5.65972485396462    3.49879991243859    2.16132349566395
H         6.62174272856418    4.94417398978209    2.51983094026923
N         4.91860958029700    4.69008018201871    3.73180563093740
C         2.56105500510296    6.67831041552431    1.96565125734337
H         1.93160790959363    6.81689208366615    2.84502453708194
C         3.07184854070988    8.06314889490744    1.53598233265427
H         3.91276895967818    8.33847432573341    2.17761226177085
H         3.42954399002190    8.02327761383758    0.50388200092922
C         1.98764443734069    9.13798483897709    1.65765009043694
H         1.10176805088575    8.79952448280882    1.12193419459546
H         2.33374943000564   10.04354553740867    1.15522270495261
C         1.62494925993161    9.47386077832227    3.10976325397699
H         1.79380941139574    8.61215466482792    3.75553436144209
H         2.29085857060747   10.26190890702120    3.46863333197287
C         0.17878161701249    9.94669587771428    3.29009907326821
H         0.01469530084949   10.82494145978493    2.65953483860414
H         0.05070378357364   10.25584699176435    4.32935616068683
C        -0.89034609264111    8.90173200966838    2.95705964352752
H        -1.86757095717345    9.39051315098838    2.98815618088686
H        -0.74729338276955    8.55569662550460    1.93280106567821
C        -0.91239270383800    7.70579897807049    3.90921166899626
H        -1.30918550938310    8.02822958438231    4.87349043854747
H         0.09947292115622    7.35071863771360    4.09835162644795
C        -1.76562246906483    6.54380870227477    3.39184954567932
H        -1.89996903076132    5.82289212197537    4.20051852489147
H        -2.75292291282228    6.92774693515793    3.12240075662929
C        -1.17094780702458    5.81800510290777    2.18004335987704
H        -1.94624316491811    5.19734166056745    1.72433107765330
H        -0.88138142447517    6.55620572837718    1.43313373888588
C         0.02828446256131    4.93564422734608    2.53955759152279
H         0.55588232635063    5.35539970261954    3.39697998126811
H        -0.33577183403433    3.95616348816746    2.85785594639500
C         1.01588055489022    4.72104824280179    1.38782900265255
H         0.48373999421029    4.27340431937621    0.54453970032074
H         1.77070507433316    4.00204030398639    1.71796145769152
C         1.72227515400145    5.98653989811168    0.88750691261830
H         0.98170120163806    6.69938690800246    0.52850325348355
H         2.35356525656062    5.73005553376107    0.03284098863013
C         5.36336493238411    4.00398025808450    4.89284819170202
C         6.29614639169487    4.61667588579880    5.73151396967286
C         6.73798212009589    3.91602337228338    6.84534729795739
H         7.45621710304456    4.36830597869014    7.51127619488726
C         6.25966644428670    2.64960818983092    7.11948219767177
H         6.61179590778724    2.11819237937939    7.99093879749226
C         5.31821612085920    2.06804579345852    6.29266435893212
H         4.93604870069172    1.08760156942818    6.53054173358909
C         4.85188248350397    2.73307204151781    5.16710573112015
C         6.78417036869028    6.02165870982389    5.47081609829849
H         6.33062040764231    6.38980501917289    4.54520641459067
C         3.79347810842195    2.10075735296922    4.29444725074214
H         3.57858347314536    2.76613139696062    3.45238150188047
C         8.30510913300640    6.05824033477432    5.30521646427279
H         8.62844352923188    7.06325457356478    5.04324426023706
H         8.62367159649882    5.37542611345135    4.51931982762506
H         8.80311464690023    5.77084074177599    6.22717061242310
C         6.33154873367348    6.94638129804120    6.60324011519661
H         6.61918077332417    7.97292732577502    6.38722315362882
H         6.78257709228662    6.65403362936363    7.54762212969822
H         5.24926912245590    6.90464397504861    6.71270236984631
C         4.27031512224803    0.76028478015543    3.73018279673820
H         3.52737826135318    0.35874235583105    3.04456978041331
H         4.42459226676351    0.03642579860608    4.52551933258722
H         5.20940776760551    0.88008880300373    3.19254762390486
C         2.49503275873145    1.93212052834010    5.08656058677140
H         1.71200165940486    1.53745994522480    4.44274600354082
H         2.16782812902336    2.89273297306647    5.48125071031679
H         2.63378273600972    1.24876725924231    5.91994360381498

