81
CSD_code = MESDUK | q = 0 | S = 0 | Stoichiometry = C28H48NP3Ti | MND = 8
Ti        4.85935103573486    3.77774323245147    2.02522327816805
P         4.06661206696211    1.96711532187442    0.57223447489798
H         5.00750493367710    1.05164663191823    1.07998145739440
P         4.41691772666832    2.12585407407179    3.77880435467139
H         3.87118878063471    2.58542613235993    4.98746952011958
P         2.14883994026414    5.72431435549749    1.96908927649464
N         3.41208497568989    4.81759545806158    1.97149924546397
C         2.74854914643929    1.36908877308765    1.69254792708141
C         2.86971364335807    1.50503213516389    3.09202855784915
C         1.82970602792865    1.04965476476860    3.90477883144580
H         1.92205496563410    1.14939476151945    4.97900426909762
C         0.69784137718724    0.47775272983323    3.35663684324010
H        -0.09566665448291    0.13213940288906    4.00444560725492
C         0.58307728987988    0.34024522730576    1.98217100482117
H        -0.29647962254880   -0.11843990634839    1.55341071005170
C         1.60236913033481    0.79144028256355    1.16079313520306
H         1.52235857504525    0.69246933881464    0.08619259631172
C         6.69634019129081    5.16085030463170    2.42176629975822
C         6.96690030862273    3.90117667827092    3.02915226396798
C         7.08194616610351    2.92549886405865    2.00888696447078
C         6.82157962740137    3.56128860771548    0.77217624169413
C         6.59902551548590    4.94956620362939    1.02200999888253
C         6.78796789437349    6.46439584936673    3.16761704176155
H         7.75144905728105    6.51860855739289    3.68075570216428
H         6.00747890007047    6.56089027442819    3.92756178747171
H         6.72053014618416    7.31765896067217    2.49565508460106
C         7.28088928257052    3.70310533764397    4.48349453668829
H         8.32390819455441    3.96450223411879    4.68630081682146
H         7.13110184224725    2.66323960705811    4.77681525024676
H         6.64680940611129    4.33260692050580    5.11289729896326
C         7.55709756761716    1.51895482870402    2.22437631733665
H         8.57638892582701    1.53063135681846    2.61765243509411
H         7.56167677758709    0.95734760305639    1.29171657904707
H         6.92925295242159    0.98656532715004    2.94437543772079
C         6.96418350712753    2.97999735300597   -0.60527532390406
H         7.93516611455802    3.25153424302245   -1.03031088506494
H         6.18434112130201    3.35748056226042   -1.27146131757809
H         6.89415350725121    1.89258986457700   -0.59026370292031
C         6.53285889790846    5.97423739561723   -0.07658954892930
H         7.39281596418783    5.85261955780902   -0.73981001395794
H         6.55883446164051    6.98704429244558    0.32030165034212
H         5.62969727579385    5.86098753059092   -0.68262022412700
C         2.56353894986924    7.38558584471361    1.07288524750974
C         2.68525502565559    7.02778739459145   -0.40944363763359
H         3.20687018531738    7.82224252193978   -0.94435857758559
H         1.71420360839892    6.90664629990780   -0.87888656888278
H         3.25819260589410    6.10471287856299   -0.51541868410410
C         1.58291190225048    8.53934058117619    1.24926824449694
H         1.88874120365916    9.36096565439479    0.60001376792140
H         1.58184054876297    8.91297655037583    2.27006455020123
H         0.56945025567418    8.25983476002353    0.98051321306677
C         3.95863284109448    7.80708178606934    1.53335759614393
H         4.43088514395741    8.42843060006163    0.77255610897275
H         4.55815873359461    6.90737850446491    1.67723312756677
H         3.94283166505150    8.38077558463990    2.45422313252498
C         0.68103219445087    4.88729283548793    1.03986372069898
C         1.25205216019571    4.17932886352507   -0.19036092315936
H         0.60106777338038    3.35398985030942   -0.47405833968184
H         2.23737521537892    3.76443798055020    0.04457081522458
H         1.34071010195885    4.83530393831232   -1.05026010119432
C         0.15493013282166    3.80083833378680    1.97577094537039
H        -0.48547027758658    3.11352630095210    1.42375867451784
H        -0.43804620188421    4.21465835674130    2.78590338884187
H         0.98771802765614    3.22892749439023    2.37959369065059
C        -0.47635808341375    5.79788248848582    0.63930906778476
H        -1.28529653680494    5.17804926211384    0.25140655176115
H        -0.19815383859361    6.49701657317438   -0.14434179586736
H        -0.86102557876119    6.35712074409151    1.48716724845502
C         1.62785452909264    6.09519427449071    3.79149415549582
C         1.72436490285209    4.78102927613683    4.56756854169115
H         1.86381678733702    4.98532336413275    5.62925722090216
H         2.59197286026635    4.21857203497052    4.20495881194336
H         0.83910097475362    4.16290463757265    4.46770856800890
C         0.26259111283827    6.74228723897901    3.99678323924534
H         0.14543065986102    6.98627667426368    5.05342244050182
H        -0.54788438507033    6.07244979385200    3.72442489696115
H         0.16033150730683    7.66120452344658    3.42727076018828
C         2.71458276656181    7.00843284645461    4.36039122972161
H         2.63277157494064    7.05049112836320    5.44697078170636
H         2.62687652716503    8.02519434647377    3.98945987031765
H         3.69592548021019    6.60295684762497    4.10706723961133

