64
CSD_code = MESFIA | q = 0 | S = 0 | Stoichiometry = C15H39AsN4SSi3W | MND = 5
W         0.32392548262332   14.99327272719244    4.43321981202515
As       -0.06402638814981   13.49658542524100    6.06019139243935
S        -0.43558229252141   12.07269848214271    7.61169026312993
N         0.69157474868077   16.43215680808192    2.86753343095222
N         1.81532960667445   14.16872486402533    3.39139491630247
N         0.84769696265368   16.64515194369197    5.43280023341049
N        -1.43184931403522   15.10823200571001    3.48512695032556
Si       -2.76017575494962   15.14902149265543    4.59331050493152
Si        1.54448943441058   12.47529133009791    3.15894102325744
Si        1.90232082135108   16.32037448082633    6.76559993642763
C         2.13190358055222   16.43323590068935    2.61337649624751
H         2.63725153433122   16.89427698713901    3.47144826430676
H         2.38526228880733   17.01534994551156    1.71176448387530
C         2.60338445119454   14.97320675303975    2.49125292340164
H         3.67660880364764   14.92312302936311    2.74669662011103
H         2.52549210322208   14.63130740104778    1.44738946217903
C         0.22468376551214   17.72630922460703    3.36339214018625
H        -0.87135817021995   17.70579446566446    3.41519594311818
H         0.52126899156436   18.54983459821495    2.69266623259612
C         0.78104342274565   17.93119451441738    4.78376227640253
H         1.76269053302134   18.42856963213010    4.74220512250066
H         0.11519180958486   18.62265613992117    5.33017299901479
C        -0.06765874094061   15.99019186347953    1.69847392283544
H         0.40147190406720   15.08077883422060    1.30118654423173
H        -0.06792283495745   16.75246223587820    0.90155926908701
C        -1.49913082061876   15.64975868684117    2.15070767952305
H        -2.14166574459486   16.54224796061989    2.09342747557741
H        -1.93210003336073   14.92034693510285    1.44318805110577
C        -2.31573469243624   16.18453075763510    6.16257579444582
H        -2.36917786781237   15.55342843042336    7.04752573339605
H        -2.99742188140605   17.01775165717337    6.31183725604782
H        -1.29491169917993   16.58179409502840    6.10586419187422
C        -4.21448556518639   16.11003494037055    3.77964173038629
H        -3.96296697202576   17.14413551847831    3.55560180021993
H        -5.06804062746680   16.12598895837228    4.44779464621628
H        -4.53300790500278   15.63944184103476    2.85463735456535
C        -3.45559756287005   13.41282312991651    5.01205177105725
H        -4.53982992405046   13.43867523624600    5.03536704107031
H        -3.10909922013870   13.06409647099147    5.98399668012409
H        -3.15980454939327   12.66584221619571    4.28058500250833
C        -0.32570817732724   12.09915400045853    2.84407701049904
H        -0.70051475659776   11.42990078377030    3.61592039607874
H        -0.49267905260313   11.61823335215308    1.88374550536425
H        -0.93231343642052   13.01234265695423    2.88056870511980
C         2.30854808058102   11.38901436815525    4.54087099594719
H         2.86223661466637   10.56169625446844    4.10975388622323
H         1.54059109983909   10.97477718870868    5.19222978999112
H         2.99087007671791   11.94983612399643    5.17394803408188
C         2.41385546590031   11.92948719649721    1.53130396027809
H         2.00892832766564   12.42330546943636    0.65092962726341
H         2.29001564053162   10.86246149100687    1.38471620902631
H         3.47974809140330   12.13303762070587    1.56329757276425
C         0.98111436202180   15.99733342700924    8.41470158749650
H         0.01364865941534   16.49043112037369    8.44618890586267
H         1.56768657088421   16.37488857126169    9.24541140094972
H         0.81016682515780   14.93479454111582    8.58518747013193
C         3.14445706960212   14.91620602666442    6.30621843378620
H         2.99786853300193   14.06406293271003    6.96698426491776
H         4.17903970005935   15.23378548462360    6.40507735091687
H         2.98939765122103   14.56655044024665    5.27785525146778
C         3.00230577971728   17.86586752341941    7.08065234354975
H         3.63247255193211   18.11418794262279    6.22989031449039
H         3.65932686000991   17.68759956720210    7.92426496154265
H         2.40199577928625   18.73974799701623    7.31385265082329

