91
CSD_code = MESIRA | q = 0 | S = 0 | Stoichiometry = C46H41IrOP2 | MND = 4
Ir        1.75802184440630   -0.24271155159275    3.72227151608586
P         2.05804481381265    1.72266305632721    4.95627073308430
P         3.68283595751739   -0.06771067982437    2.43493619372727
C         0.03956751654077   -0.50350060166023    4.35330428260189
O        -1.06802382388258   -0.64989965933371    4.66912674592678
C         1.50052425845411   -2.08538741404388    2.76128741993642
C         0.84946364142781   -2.23153022342486    1.52972166434230
C         0.83381550639172   -3.45103982807456    0.86924763675801
C         1.45251573381232   -4.57005039780846    1.40315415198532
C         2.07372472940595   -4.44238986713388    2.63335150867897
C         2.10038298145850   -3.22739848633480    3.30557653821264
C         0.12727750051526   -1.07445042858190    0.89505761109431
C         1.42585894154167   -5.88191554033863    0.67464228807711
C         2.81772539044693   -3.16783956733663    4.63000120310788
C         1.35233369846041    3.24655165657141    4.22938997011808
C         1.86147292070993    4.52874848966251    4.40262288932789
C         1.24200974915974    5.60799339787681    3.79680209336108
C         0.10800881287246    5.42210195199986    3.02422200346339
C        -0.41464393306697    4.14903290963209    2.86117561742514
C         0.20647365658649    3.06889259610382    3.45839618168219
C         3.71429928675808    2.27094394390005    5.50873967754012
C         4.21322773639439    1.88101058929278    6.74900063929884
C         5.52299297852921    2.15867741300985    7.09463370947612
C         6.35677441657479    2.81282702094264    6.20310069806456
C         5.87030333288945    3.19849993368325    4.96488336653742
C         4.56055884770194    2.92744125882572    4.61870295949114
C         1.20165939351931    1.72541126125307    6.58026313041721
C         0.98055923021883    0.50225306299718    7.20435616152816
C         0.36718895332616    0.44619487603081    8.44210021737235
C        -0.03405659493381    1.61538742973664    9.06694680602831
C         0.18541105778430    2.83714645448203    8.45228291472759
C         0.80391075088122    2.89569754883588    7.21627680313887
C         3.79233468253226   -1.11910596698698    0.94253106347255
C         3.30408029204461   -0.68798929083580   -0.28471875345463
C         3.28073713027948   -1.55080237173776   -1.36564822263473
C         3.73274664976536   -2.85148483182153   -1.22881053261719
C         4.21874124506892   -3.28753144179637   -0.00728313752599
C         4.24708435497117   -2.42816368544729    1.07277135930056
C         3.92736664605978    1.58227824585529    1.67679050239698
C         5.15840959002541    2.17661168717303    1.42680464251719
C         5.21620204798702    3.44666537712934    0.87928325207373
C         4.05299038038394    4.13658469885958    0.57923261351141
C         2.82183783726716    3.55079941328513    0.82424434926833
C         2.76308744925503    2.28215248912428    1.36906112293345
C         5.30958746040898   -0.40902253274557    3.19298356895329
C         5.37618207521053   -0.46284353969576    4.57965394587439
C         6.58205241669899   -0.68335357386070    5.21945758097711
C         7.73442495069202   -0.86043496217948    4.47355351348173
C         7.67273649808982   -0.83813899495383    3.08872676999923
C         6.46749365524189   -0.61933115846549    2.44791715710694
H         0.33134977851477   -3.52851097699827   -0.08658759594685
H         2.55621979722006   -5.30333960206278    3.07968891884513
H         0.48274562153681   -0.12932646428653    1.30770010018512
H        -0.94127901012464   -1.14875615155396    1.09866757672400
H         0.26941494944985   -1.07073396858524   -0.18423411319732
H         1.53689051762036   -5.72828137897646   -0.39751260953518
H         0.47461158799886   -6.38855396599004    0.84393853095346
H         2.22328807629541   -6.53596130547755    1.02158391361527
H         2.55275399890939   -2.25319480878949    5.16600894479223
H         3.89995509290616   -3.17995452018871    4.48460292900495
H         2.55409028898579   -4.02389472115431    5.24912868091101
H         2.74032325556763    4.68991467490596    5.01127140780454
H         1.64629407058458    6.60095820851088    3.93278889273450
H        -0.36919856073236    6.26894678092069    2.55299718480312
H        -1.30383666799605    4.00012962083248    2.26611538551937
H        -0.18832985754004    2.06676876161239    3.33486409579811
H         3.57107224990074    1.35980911707927    7.44594510453568
H         5.89625495786470    1.85930033330770    8.06352957157321
H         7.38176883906260    3.02125069951846    6.47186937115733
H         6.51323326316392    3.71063597260387    4.26352620886403
H         4.18384083625831    3.23581331841529    3.65467727181380
H         1.28457507905842   -0.40804306258884    6.70162237801095
H         0.19709779879765   -0.50890851612207    8.91676430598937
H        -0.52011567195004    1.57499770269710   10.03056860288931
H        -0.12826025817991    3.74999275601871    8.93781678397165
H         0.96967036566523    3.85293361439262    6.74289328274389
H         2.93960294038732    0.32376294073790   -0.39686299647398
H         2.90022974148403   -1.20716444619326   -2.31706143077439
H         3.70330522420164   -3.52632329177031   -2.07164217165305
H         4.56732422272370   -4.30320281278779    0.10589305980717
H         4.61938418708171   -2.77313458780051    2.02681709225108
H         6.07395143613036    1.66344023923972    1.68072230847595
H         6.17743221038144    3.90379625035681    0.69232989216728
H         4.10662774031969    5.13053233738092    0.16018871083191
H         1.90947988056753    4.08465138092684    0.60199003791152
H         1.80403626658087    1.82420987345594    1.57553026429503
H         4.47074118253543   -0.33749865478723    5.15867420021480
H         6.62114190714527   -0.71960426876106    6.29815723433565
H         8.67976431958436   -1.02945851985929    4.96793888242662
H         8.56914725317548   -0.99537111183355    2.50596179848362
H         6.41918644065473   -0.62956761293786    1.36703186491824

