67
CSD_code = MESJOJ | q = 0 | S = 0 | Stoichiometry = C34H22N8NiO2 | MND = 4
Ni       -2.05082300361637    5.51050118780274    4.69072670188593
N        -2.35113771194127    4.88906284913201    2.99116428320120
N        -2.17462317945063    3.75904891169066    5.39176608368837
N        -1.64258286268880    6.12696737204469    6.35754844711533
N        -2.39029660990890    7.26948783897344    4.07935554069699
N        -2.50286091274817    2.49986071805350    3.38052709761017
N        -1.97662812245374    4.23071282302207    7.72645358278450
N        -1.68977198288129    8.52696516754711    5.98531899723897
N        -3.25774967184340    6.79676502443592    1.90591379487451
C        -2.82594773368390    5.53077134008638    1.94727310304521
C        -2.82699634766489    4.66850898730133    0.76524727120829
C        -3.25925987856180    4.88199875424909   -0.53086549612957
H        -3.69190471034740    5.82796943430309   -0.81443724684377
C        -3.11507658801306    3.84018925824482   -1.43476394821087
H        -3.44334333335466    3.97134744864230   -2.45545634250680
C        -2.55542302391906    2.62919307068046   -1.05039788677395
H        -2.45731553224368    1.83669586314251   -1.77768513040697
C        -2.11964634044864    2.41663378022656    0.25260631829928
H        -1.68500794034448    1.47883191400592    0.55948210212184
C        -2.26546892176163    3.45003237914378    1.14940581280988
C        -1.89228314279666    3.54521031376396    2.61305360283523
C        -2.54745991837650    2.64994530786851    4.64610229673060
C        -2.99116586917981    1.60122912272936    5.57200502910739
C        -3.46411886217853    0.32221310884190    5.36798286821473
H        -3.59625315122330   -0.06161391502033    4.36934614733904
C        -3.76268942225782   -0.43840945898114    6.49270856464430
H        -4.13996885801651   -1.44300030629759    6.36926868708901
C        -3.58414671717729    0.06690508725581    7.77327635290322
H        -3.82391895006357   -0.55327702094301    8.62458387450395
C        -3.10090827282817    1.35313268049498    7.97961512702408
H        -2.95365072937292    1.75306925306211    8.97007009599763
C        -2.80886618028183    2.11037757663475    6.86318981975949
C        -2.29898085789931    3.47500905395556    6.70437964375162
C        -1.53926723110437    5.47005583563287    7.48939193470471
C        -0.89301296898963    6.30013054003022    8.50622720081272
C        -0.63863716787816    6.07732441816487    9.84621754476843
H        -0.92126995411413    5.14487794724382   10.30782915089375
C        -0.02186229064658    7.09305450569632   10.56169669970561
H         0.19070863271227    6.95356827419320   11.61145355762178
C         0.31630729526190    8.29230165494294    9.95206188766523
H         0.78398937658923    9.07114458890287   10.53643550588367
C         0.06206499556796    8.51456965733742    8.60270154056660
H         0.31044051661653    9.45590652431411    8.13801434392528
C        -0.53448116600342    7.50101221005333    7.88714290670260
C        -0.92801107570400    7.39566057814369    6.43047189129120
C        -2.31340632746168    8.39827533798790    4.87805176706982
C        -3.02754459159550    9.48924919725034    4.20557587961811
C        -3.26599790860027   10.80027398594110    4.55991792066098
H        -2.92469394705848   11.18501756540503    5.50764192233640
C        -3.96418168373313   11.59230851716323    3.65547816076283
H        -4.17361982728193   12.62243746172692    3.90371777957909
C        -4.39765159065762   11.08490847384080    2.43837545077708
H        -4.93563955686963   11.72941597516250    1.75876565874025
C        -4.15187006626729    9.76546995979922    2.07802279368579
H        -4.48178806529072    9.36354502841284    1.13350270766497
C        -3.46345490192823    8.97689571486258    2.97734722992917
C        -3.04428969632763    7.57256069692794    2.93961008627853
O         0.17834688635981    7.14710904551484    5.55746972025391
O        -0.50285569138537    3.42885760049270    2.86688670702293
C         1.09279160353048    8.20741553420408    5.40549552311530
H         1.75767890717311    7.90884111983597    4.59677428606159
H         1.67406571674981    8.35713662294469    6.32158262221048
H         0.58233256743079    9.13883718629352    5.14067466083661
C         0.32880271190805    4.37137606349519    2.22481534387038
H         1.34403512631590    4.07392749869547    2.47881457960205
H         0.14536947594092    5.38691149479010    2.59756442123075
H         0.19687723626883    4.34958825850301    1.13690541854155

