73
CSD_code = MESJUP | q = 0 | S = 0 | Stoichiometry = C36H26N8NiO2 | MND = 4
Ni        1.84189415775085    1.64844042847636    3.39467062939147
N         2.34009167324277    0.05960538277295    2.63455415048283
N         1.61321438774401    2.38280802353232    1.67241196409813
N         1.50071297732721    3.27083711355379    4.17050609921574
N         1.61572594619034    0.81641423962036    5.07248896520454
N         1.78785500643540    0.39550726296692    0.35535338343902
N         1.24036867885434    4.68437735140703    2.21972402371310
N         0.71858593566680    2.64894298291459    6.31845268006471
N         2.31983684405425   -1.41420753993150    4.55812928663788
O         4.21565907194901   -0.30582165726161    4.00593993492048
O         3.28463847380310    4.41971709566365    3.15775888405878
C         3.07325916765209   -0.92373673779367    3.44138882250235
C         3.38410216438133   -2.02237083720106    2.44797768691251
C         4.01664267759507   -3.23241014890647    2.61807611834278
H         4.37560930423980   -3.53432873516543    3.58898732977227
C         4.16791114004982   -4.04276847159213    1.49847203977554
H         4.65747124589586   -5.00021072369894    1.59994635600067
C         3.70218821195193   -3.64498706759776    0.25274724802206
H         3.83702388381952   -4.29878931769751   -0.59642073858942
C         3.06687653762278   -2.42402717661675    0.08146300821593
H         2.69907178116757   -2.10175861649828   -0.87943890635812
C         2.30289019821590   -0.30242282849851    1.37215198789848
C         2.91355125188785   -1.62078342303358    1.19631292743727
C         1.45314118423934    1.64790830380352    0.55290001587464
C         0.86607233326501    2.48221492065034   -0.49884994099368
C         0.50958217002930    2.21410427119904   -1.80507921394814
H         0.66449870892803    1.23445828578665   -2.22809323466170
C        -0.05074032136000    3.25010285599106   -2.54203921867561
H        -0.34326734936400    3.07482741769981   -3.56697598121826
C        -0.24100199180172    4.50818857100653   -1.98680873191985
H        -0.67980689713548    5.29033295506440   -2.58883726269837
C         0.12236373454284    4.78009535074298   -0.67284191625141
H        -0.01935197513177    5.75369033514785   -0.23225742290610
C         0.67175798297944    3.75039206928835    0.06138187752186
C         1.18689355975253    3.68205008993739    1.43335823089633
C         1.90681813252167    4.49854075605090    3.47538492579985
C         1.55343022004623    5.58818344831189    4.46434103445303
C         1.65978009845566    6.95655605928973    4.36667300868683
H         2.04012598548386    7.41650806310084    3.46862786897940
C         1.25667294900188    7.71335347802742    5.46111074533302
H         1.32529164500497    8.79028049808311    5.41453034350002
C         0.76795253113171    7.11154396093017    6.61260038030261
H         0.46392623685923    7.72944024455750    7.44476614933269
C         0.66321962720724    5.73205278572155    6.71128436292962
H         0.28471472852143    5.25039986803966    7.59853211132569
C         1.06134503152558    4.98064355072953    5.62110923208185
C         1.08433199048798    3.53595189958725    5.38802217193333
C         0.96583463086949    1.37769483972460    6.11251346932548
C         0.58532944238908    0.33588065696692    7.06993592119817
C        -0.08503952343633    0.38416074198653    8.27552725286257
H        -0.42384713254062    1.32461016776848    8.67977953152327
C        -0.30089961784602   -0.81821590899076    8.93737620032534
H        -0.82420916310517   -0.81767098069531    9.88232663707611
C         0.14446688325932   -2.02181406475124    8.40797966780748
H        -0.04105035053188   -2.93784734729108    8.94946887263187
C         0.82371364579814   -2.07044203284748    7.19603600035410
H         1.17525008964311   -2.99929852146433    6.77682393617502
C         1.03177646311420   -0.87838688989522    6.53502637128296
C         1.71878185742866   -0.55226266847894    5.28039543511341
C         4.17742702663060    4.24833744063673    4.24793138134601
H         4.05084343802052    3.24345687618317    4.68259803169968
H         3.96964586232184    4.99527104093044    5.02781043363988
C         5.58796145104930    4.41781869399095    3.71009636509948
H         6.30895732680060    4.27079750418668    4.50955393465311
H         5.70743857537967    5.41530546532043    3.29604986204402
H         5.77025178385900    3.69212432877490    2.92276579843374
C         5.13837672707562    0.27264532178939    3.09537427009836
H         4.69363172377046    1.16661020181130    2.62807197560538
H         5.39016851177128   -0.44735555329630    2.30318685264041
C         6.37931103761266    0.65091206888637    3.88572620324168
H         7.10709645274390    1.12065597907242    3.22976585193923
H         6.81733210391192   -0.23779594937742    4.33196687278708
H         6.11201972132156    1.34146195089651    4.68041945425938

