124
CSD_code = MESKOK | q = 0 | S = 0 | Stoichiometry = C60H56MoO2P4Si | MND = 8
Mo       17.72746527753336    1.31389042892764   13.24174632359216
P        16.83118844529971    2.90088998172618   11.64643758154567
P        16.91532858668735   -0.14876176466122   11.48011380810442
P        17.81789596512440   -0.53339774680513   14.79502904532802
P        17.55694942967919    2.51736734383163   15.28091876704149
Si       19.53360894969350    3.05229926937234   13.11712340465150
O        15.67722831035940    1.45275143577076   14.07652394900791
O        14.93529155384906    1.12648037085920   12.02746272734936
C        17.05327591545477    2.17399547065354    9.97190113277018
C        16.54281693953682    0.74509767588220    9.90100269696925
C        18.24962884144053    0.21034529262157   16.43455083414786
C        17.24538367811531    1.32849583564355   16.65257435383690
C        15.19635642348225    3.72076277986895   11.58803714316985
C        14.95294931581780    4.65674773105438   12.58602329806693
C        13.74309765810086    5.32222700894549   12.65184183606404
C        12.76165908320569    5.06059041592554   11.71040435915507
C        13.00108108851325    4.13608315691654   10.70632667188943
C        14.20878672858296    3.46509264901775   10.64355166891578
C        18.21749211646222   -1.27767168652610   10.81234446754583
C        17.87613452957341   -2.13507631768995    9.76583109852021
C        18.80342935878543   -3.00566175117649    9.22902454412807
C        20.09416597099918   -3.04190657947409    9.73369010302052
C        20.44346774583987   -2.19775166409846   10.77134820816125
C        19.51250933948730   -1.32176758725459   11.30456045028325
C        15.65246971490202   -1.47486611722136   11.57035078828348
C        14.35495822217500   -1.42588325275573   11.07840419129810
C        13.50642964011782   -2.50724157427131   11.24842011863397
C        13.93640889712460   -3.64361078787391   11.91117439473775
C        15.22864367580779   -3.69964544827600   12.40830672102766
C        16.07483627031540   -2.62315621436981   12.23603269839909
C        16.43422895277335   -1.58681171522032   15.39342207637225
C        15.16257140378942   -1.49030431046212   14.84617881346819
C        14.11913367196430   -2.25991535539774   15.33306358679597
C        14.33792339255348   -3.14607189250546   16.37141711190381
C        15.60699026241117   -3.26252140901150   16.91823825538976
C        16.64577728999154   -2.49061802860505   16.43621655386874
C        19.14178932650798   -1.77586028556050   14.62257878349284
C        20.46226121246551   -1.33311764801528   14.62913922698353
C        21.50519829544719   -2.21536898338845   14.42501279005081
C        21.24635135573694   -3.55732914643867   14.19816392225429
C        19.93871190300997   -4.00870857244900   14.19075628804585
C        18.89362521840190   -3.12752448326977   14.40555031843546
C        16.38154485544600    3.85115191157444   15.66694114036395
C        16.78028133396971    5.16443658086063   15.41892329572582
C        15.92527060092677    6.21800448118094   15.68372963098398
C        14.65552380462124    5.97175904742715   16.18177670253150
C        14.24467138152335    4.66885346981523   16.40785191232467
C        15.10164570162403    3.61252613291548   16.15481357655690
C        17.79912455155942    4.42788186533552   11.41122581896041
C        17.36868427496183    5.43614228517307   10.55411045828908
C        18.11611501850289    6.59064542911697   10.41601861702846
C        19.29225669649685    6.74556320152436   11.13427324322093
C        19.72618528258098    5.73552484689611   11.97337377846344
C        18.98625998510646    4.57000492920143   12.11964550586810
C        20.00647156647302    3.63273845348787   14.86327335179312
C        21.17182396347556    4.29915446558352   15.21143545681929
C        21.40195580910421    4.67817404257686   16.52257431952428
C        20.45324755149310    4.41150731310549   17.49774035563048
C        19.28302048696111    3.75341665048159   17.16446887332659
C        19.07127452704654    3.34316123966304   15.85318838114482
C        21.16347502203028    2.50874441890746   12.29841829262543
C        21.34646958734962    2.65257454552542   10.92895600219719
C        22.47461960003301    2.15933828225847   10.29984009436812
C        23.44673017981588    1.50415585121994   11.03677530830842
C        23.28351252045629    1.35423054210199   12.40344099542132
C        22.15163953877373    1.85239096194805   13.02223101383249
C        14.75654628376716    1.35865839618036   13.23562210835714
C        13.33153591362855    1.54822846080725   13.74174628157142
H        19.13042510639871    0.82213164447388   13.81422890164600
H        16.60182641986151    2.81735931869283    9.20750847892397
H        18.14332132823771    2.18270619872897    9.83253422911444
H        18.66418158009411    1.05751179530683   11.97733764885062
H        17.01679740072267    0.21113096611534    9.07120945537050
H        15.46088708612496    0.73236566390877    9.76436063891880
H        18.21840812918576   -0.53266642839815   17.23696056573091
H        19.26211247749311    0.62777161267863   16.36721890674908
H        17.35582240761788    1.80950466261636   17.63001337890645
H        16.22697728170359    0.93324680127750   16.55972569449776
H        15.73200780336489    4.86449576372856   13.30688671116256
H        13.56998089949463    6.04333330430705   13.43812486670888
H        11.81311677279358    5.57595888955590   11.75662311385330
H        12.23811865587088    3.93486675078149    9.96726106993907
H        14.37360558407593    2.73404597947605    9.86655537270259
H        16.86587208563710   -2.12659612614402    9.37391519049610
H        18.52004507332434   -3.66124395192487    8.41737485931690
H        20.81942896240104   -3.72573439057999    9.31666480481614
H        21.44587745100813   -2.21490084609004   11.17417408151991
H        19.80264410799520   -0.66301651088836   12.10795638229984
H        13.99286008064743   -0.54212576853440   10.57631278100609
H        12.49930297465401   -2.46062914336714   10.85760403177966
H        13.26784320569745   -4.48256831319806   12.03985855613846
H        15.57237080842776   -4.58226065941108   12.92937133233427
H        17.09080057057524   -2.65138829009821   12.61005061103253
H        14.98290373270663   -0.82060335599779   14.02095907565836
H        13.13760218969966   -2.16950931224864   14.89038741047375
H        13.52709019546789   -3.74990498387160   16.75198524070089
H        15.78677399529915   -3.96127192631617   17.72293696894335
H        17.63507906355945   -2.60560824027695   16.85920691588667
H        20.67342215125653   -0.28187428875397   14.77389312833045
H        22.52287065114451   -1.85301814330955   14.43446087027058
H        22.05942377906428   -4.24751990947899   14.02748274711537
H        19.72713796732396   -5.05382602665053   14.01588333734700
H        17.88072119444120   -3.50445291329989   14.41493049445385
H        17.76694648370882    5.35411092071654   15.01371843156781
H        16.24784605785553    7.23204579335023   15.49569083488870
H        13.98703630511325    6.79453007586437   16.39111955410270
H        13.25124953825011    4.47452562482444   16.78748080521216
H        14.77204630770163    2.59947760812544   16.33185003633651
H        16.44641161202505    5.32289049034208    9.99876060867314
H        17.78071678788228    7.37329388147485    9.75020458048086
H        19.87043996077835    7.65291848258752   11.03166842738722
H        20.64904500834944    5.84700674929598   12.52360854971077
H        21.90486388367344    4.51384307159628   14.44746043275722
H        22.31569050397597    5.19093498983452   16.78753106810732
H        20.62426054090541    4.72178274550101   18.51893076211638
H        18.53700171665655    3.57389520587564   17.92768063315916
H        20.59032707370934    3.16594399435154   10.35048195707851
H        22.59794742394770    2.28251334200718    9.23276710244615
H        24.32816226171456    1.11385216034111   10.54798951932485
H        24.04171563370904    0.84769227333326   12.98496487294148
H        22.03104661312007    1.73904409845277   14.09093536681994
H        13.22077500940222    1.12118617978224   14.73567475803828
H        13.12789192093127    2.61696189230395   13.79088756645994
H        12.63303418839013    1.08470626808581   13.05104665144387

