126
CSD_code = MESNOQ | q = 0 | S = 0 | Stoichiometry = C54H61BN6O3Zr | MND = 6
Zr       -0.00058039788894   21.64302399013020   21.84637672466407
B        -0.00459283722541   21.63748020300994   18.05686264167620
H        -0.00507406952452   21.63586945998930   16.86496420946782
N         1.34119782841223   21.08145426369839   18.54649980575097
N         2.80299652725624   19.70793739656630   19.52972381501660
O         0.65592336467618   20.00058224464000   20.45007633347692
C         1.52448253380176   20.22633689605104   19.58125342589705
C         3.47044465990784   20.36115464279602   18.49807770990092
C         4.78029235299210   20.33808421305331   18.04377014823168
H         5.54176049185243   19.72190384736396   18.49211408997429
C         5.12037136744940   21.15835413620983   16.98035428188961
H         6.13792213796234   21.14992344614183   16.62035286025032
C         4.18994681999160   21.99299984020341   16.37585585141830
H         4.49384538908904   22.62022224260880   15.55187702294659
C         2.88284336765181   22.03885070785900   16.82571078354515
H         2.15251135436267   22.69221544177390   16.37744281230280
C         2.53830016460303   21.21855995823570   17.88615557910611
C         3.32821932331108   18.51260802534360   20.21037972453395
C         4.51334916549215   18.89670510261714   21.10246566798905
H         4.17505050528977   19.50645880235345   21.93606581320092
H         5.26736565446633   19.45459596409989   20.55707896839768
H         4.97193117056657   17.99620313954388   21.50232164312049
C         3.74320458441995   17.49426391832277   19.13668596085183
H         4.57050384099841   17.84433369279556   18.52955081054087
H         2.90149997282191   17.28555877941605   18.47907870108013
H         4.04170238460732   16.56599055440329   19.61657890612203
C         2.25558001970223   17.85432148528526   21.07346918296376
H         1.91309198578345   18.52021721645477   21.86011538356297
H         2.67480599978966   16.96308737358902   21.53453778746781
H         1.40054750967482   17.56121802169259   20.46879549239192
C        -0.57234686648458   23.58736697672226   22.85779493723626
H         0.30802757964386   23.99371440178222   23.37429772259436
H        -0.86979775908816   24.23749752185611   22.02134971232848
C        -1.68454817640402   23.42708165136742   23.78738739523449
C        -3.01396797521091   23.61352241032339   23.37731184539523
H        -3.20507988004189   23.92527146584416   22.35744573649012
C        -4.06825425063930   23.42503025366189   24.24879105529566
H        -5.08286345093261   23.57237187491047   23.90323469391061
C        -3.83544147323959   23.06555216503134   25.56683981951701
H        -4.66044738455185   22.91965294304084   26.24830469954426
C        -2.52713029062395   22.92013381713222   26.00557131858580
H        -2.33500333371989   22.66982142355836   27.04010257315771
C        -1.47047039910672   23.10257279591070   25.13747907001035
H        -0.45149018155787   23.01235435566868   25.49082407442767
N        -0.19128481277461   23.08283197675326   18.54459802341364
N         0.29489733635394   25.03540094499471   19.51495766819400
O         1.09327587852054   23.02571035080333   20.44438779162774
C         0.46801182708603   23.66724658686373   19.57391492412730
C        -0.60269547459931   25.29246207535121   18.48317952727836
C        -1.22204886496884   26.44401773175150   18.02177460699187
H        -1.05519682429708   27.41229878300540   18.46349302297672
C        -2.10473551901421   26.33358046779425   16.95968881274037
H        -2.59400940633529   27.22353095048290   16.59406201479780
C        -2.37975180490432   25.11021908042658   16.36341680837848
H        -3.07605604878178   25.06411695549978   15.54017717421166
C        -1.78152708477495   23.94990318702557   16.82035293496770
H        -1.99538384057235   22.99062534935340   16.37841034940470
C        -0.89661922628263   24.05644151797696   17.87943868332883
C         1.08132013534277   26.08088487174520   20.19042023268692
C         0.16662980508691   26.93143339760518   21.07781143090346
H        -0.20924129306738   26.33876512121864   21.90767524370350
H        -0.68237464599715   27.32343395032926   20.52760982414101
H         0.73095642662176   27.76707171163294   21.48316290647812
C         1.76811372675096   26.93440688171053   19.11265363393849
H         1.05885543150210   27.47900245082774   18.49948014216609
H         2.36465444107225   26.29839747941827   18.46138237881024
H         2.42926018901054   27.65340192083772   19.58912110279742
C         2.17889999055544   25.47091576260954   21.05774514177523
H         1.76408047915363   24.85335577737685   21.84905716611001
H         2.75339672656713   26.27436322004304   21.51279009902565
H         2.85109029725635   24.86244651676851   20.45727799236590
N        -1.16262931675624   20.75491926773728   18.54758116180081
N        -3.09851959816776   20.20957813086047   19.52016558678990
O        -1.74626976605920   21.89735126352646   20.44915432586822
C        -1.99520863030109   21.03681430054888   19.57869897948224
C        -2.88098996857180   19.30600617142161   18.48453454702142
C        -3.57791413691545   18.20091908142700   18.02003720551407
H        -4.50086092615200   17.86561253160768   18.46301959670619
C        -3.04969650083495   17.49332681007501   16.95254881541638
H        -3.58343686161619   16.63052025153636   16.58406292211102
C        -1.85205741738984   17.86129504081925   16.35418989534027
H        -1.47118380922211   17.28307712150418   15.52637431363302
C        -1.13669229605209   18.95177326692748   16.81468876861572
H        -0.19837607926386   19.24159397206658   16.37112667147163
C        -1.66269322570749   19.66345838119298   17.87908596721456
C        -4.39285449349312   20.37019245921196   20.20321708300144
C        -4.67129933512931   19.14990042730839   21.08685849891742
H        -3.96307446173730   19.11263407979390   21.91041661193957
H        -4.59617525723010   18.22104227602792   20.53119635533082
H        -5.67317666730232   19.22416530982239   21.50128944414329
C        -5.48102782678218   20.54727614013694   19.13256703714802
H        -5.60600124914510   19.66385272613315   18.51656310891819
H        -5.22879112226742   21.38337698893452   18.48308887691582
H        -6.43030770901722   20.76271565859929   19.61581531124221
C        -4.40408329515645   21.62217689692366   21.07576126299359
H        -3.65718882750412   21.56692759181725   21.86232638566579
H        -5.38396839518590   21.71916930849997   21.53731716044437
H        -4.21437874478954   22.51022338881142   20.47750569707829
C        -1.39558503938336   20.17830356331626   22.86500982474754
H        -2.18836630103875   20.73512837810070   23.38300779033321
H        -1.80973615271888   19.59361401202167   22.02974519480250
C        -0.69436437448231   19.29893765903487   23.79313955092905
C        -0.17583446158798   18.06208157243110   23.37843174079554
H        -0.34441348493168   17.74368704330549   22.35655881716600
C         0.52242464916938   17.24759328300085   24.24759738916491
H         0.91442942039958   16.30158271315207   23.89844525433637
C         0.71019687680401   17.62521880092268   25.56782778698700
H         1.25566277961725   16.98722171751790   26.24732626726986
C         0.16645219050530   18.82229885583250   26.01107944553767
H         0.28141666371972   19.11045186513523   27.04719848702342
C        -0.52781229795862   19.64203363232307   25.14531142088771
H        -0.97075458750862   20.56266190101632   25.50232808148449
C         1.96762123847692   21.17584968665165   22.86470818879277
H         1.88372710520434   20.20809562601040   23.37788640118742
H         2.68019984892394   21.11520210032678   22.02844895722381
C         2.37927502802758   22.21780523091001   23.79827953942105
C         3.19734422344179   23.28334212365609   23.39102224409749
H         3.56222237083943   23.29867287197245   22.37097347972788
C         3.55434610674304   24.29052706234019   24.26541863508894
H         4.18259004016436   25.10160858836111   23.92185985453612
C         3.12828950643890   24.26087577748968   25.58389970439708
H         3.40877996841372   25.04837682238394   26.26762088199367
C         2.35742232908291   23.19281848580659   26.02003221868549
H         2.04622857299714   23.14552030319693   27.05480169603164
C         1.99364622033272   22.18670487102199   25.14887614257627
H         1.41300030307980   21.34366252621268   25.50020698525587

