40
CSD_code = MESREH | q = 0 | S = 0 | Stoichiometry = C19H14CrO6 | MND = 9
C        -0.40384719551692    5.94971479161866    0.70341619212936
C         0.75802483394200    6.92004556077977    0.98108397729349
H         0.41911677671522    7.69353682772174    1.67794224055912
C         1.95842607796572    8.35741014301317   -0.86097943857164
H         2.66482618650576    8.82267218088682   -0.19088786876120
C         1.96374092070288    8.63966421491827   -2.22071155121234
H         2.68812539186562    9.33668272285450   -2.61092464938384
C         1.05810491710352    8.03702208644740   -3.07995676046065
H         1.08339606154772    8.27299931685652   -4.13257569081100
C         0.11494547351437    7.12955604908777   -2.61485289687238
H        -0.59313612048161    6.65437936978533   -3.27346718105166
C         1.02789205912850    7.45599683817692   -0.38963644044782
C         0.12349769285448    6.85556410860111   -1.26389191999710
C         1.90537781952951    6.16935249330143    1.60605146537221
C         2.17318037189387    6.30866376857399    2.99497444403901
C         3.18509266028118    5.53393553522859    3.57394458669906
H         3.37132272504595    5.57644316721804    4.63822327777702
C         3.91415045698848    4.61770682118407    2.78770343025394
H         4.63948967569569    3.97742613311808    3.27700906439060
C         3.63297840404062    4.43400362732808    1.43202126875325
C         2.63999360789555    5.24772524149910    0.85007013106686
H         2.37303761236854    5.09002692372794   -0.19030488593139
C         1.77762847186239    7.57023747510747    4.97488477685086
H         2.80687128759860    7.94376982933320    4.98614016874425
H         1.67004955726786    6.74387125725904    5.68390021859513
H         1.09668100801782    8.37115073389483    5.25640502116092
C         4.32494595801137    3.37969529333956    0.62089380604115
H         5.27601492156780    3.10483336361839    1.07164076369028
H         4.50989549965211    3.73126399819515   -0.39238671652679
H         3.70354149817633    2.48371691960356    0.55996175087041
C         4.05730468178982    8.43633644609511    2.04081046312760
C         5.83278614340345    6.87703131012739    2.37440118089016
C         4.87340092937326    7.12184402403068    0.21536564694916
O        -0.71371701395136    5.97499555968965   -0.61255718139379
O        -0.95834935074196    5.24168521420786    1.48931700587361
O         1.39292691054062    7.19004280548822    3.67080640524646
O         4.07590795335425    9.58637529603258    2.17026981064266
O         6.92269492691176    7.08845945150933    2.69501020527350
O         5.37952586064174    7.48076932269696   -0.76038744806240
Cr        4.12145434693610    6.63419377784357    1.79777332719370

