65
CSD_code = MESSIN | q = 1 | S = 0 | Stoichiometry = C28H30N5OZn(1+) | MND = 5
Zn        3.66028031612466    7.97348894643850   14.97964663782791
N         2.65130371292519    8.19995141825395   16.66816601060340
N         5.35095741787552    8.39039690386639   16.35921781132081
H         5.63976657443014    9.35697629884829   16.23075303224055
N         5.23011120136705    6.91224410049508   14.00994384850861
H         5.18688428688051    7.12210862145144   13.01427540821203
N         3.46809001681420    9.79614909829508   13.99088158912328
N         1.95388874765194   15.72408204537420   10.49046024455953
O         2.30401571835196    7.00893657935535   14.15616176581613
C         1.43447489028101    7.80743831068083   16.84863691314129
H         0.97190154172821    7.97445286064240   17.82657139467401
C         0.62530683027003    7.16328024930004   15.88051201071402
C         1.10118156283265    6.78312513746815   14.58660813236016
C         0.19567239393387    6.11012875777995   13.73290483160781
H         0.55991718839555    5.82116547511746   12.75870774152148
C        -1.09016711711799    5.83614926143183   14.11492643288625
H        -1.75445877770002    5.32352350337496   13.43549988807834
C        -1.55368396527501    6.21218216254590   15.38115026161692
H        -2.56742379489301    5.98981661436658   15.67316543060985
C        -0.70691552838409    6.85591975454258   16.23944955883874
H        -1.05023891417223    7.14803411197662   17.22180134700279
C         5.02968092328279    5.44669856233556   14.10580387591832
H         4.00342645987568    5.24805672343173   13.79031127892892
H         5.13065997672378    5.14503659271543   15.14945778263751
C         5.99885043404617    4.68829056238851   13.23807895070889
C         5.87609879848706    4.75114065637739   11.85405260277804
H         5.06124644862458    5.31045663958134   11.41452513783027
C         6.77376516540583    4.08618750932576   11.03907118373181
H         6.66548083950783    4.13592624427752    9.96639485755606
C         7.80555114797397    3.35058669508486   11.59930752389748
H         8.50372281962733    2.82840312064919   10.96386494330943
C         7.93383585041926    3.28013238358892   12.97556209320260
H         8.73243529438382    2.70350945027437   13.41647160173386
C         7.03626108921378    3.94883429043696   13.79091907463989
H         7.13617106254071    3.88348166031302   14.86552251023685
C         3.39209402389105    8.80881804503465   17.74435326272021
H         2.93371138423667    8.61586082139732   18.72051174080422
H         3.42530463049766    9.89298510419722   17.58222365591107
C         4.81552279670081    8.24648505678608   17.71186437619661
H         5.43778750029852    8.74390114626857   18.46414651725389
H         4.76949634489445    7.18066729137890   17.94725834006631
C         6.46991918423319    7.51122978987294   16.03322177617889
H         6.28498506202134    6.54062749327504   16.49684706972143
H         7.42731725861774    7.88966790648763   16.40869809572850
C         6.53977827870825    7.33686899269616   14.51508185938733
H         6.80118817928740    8.29277069869644   14.05500216094950
H         7.31908964181835    6.60935278005128   14.26221040094247
C         2.20923381055469   10.21527081181596   13.85104392338960
H         1.44775174684999    9.59649872662684   14.30311452783313
C         1.86727827167460   11.36601734686415   13.17056268485278
H         0.83216502157722   11.66053612960141   13.10289552998437
C         2.86747274628340   12.15039793576023   12.59391128657671
C         4.18283481693138   11.70586256965304   12.74481359947479
H         5.00142483141520   12.25609931831063   12.30841734536176
C         4.42762080876552   10.53926787145609   13.43823606476295
H         5.44069207295583   10.18119464461510   13.55866371561166
C         1.18296948936354   14.65824721619962   10.37952176108963
H         0.32633610230352   14.76453040063175    9.72828970326831
C         1.42890799534355   13.46706514383680   11.04524041467330
H         0.77968540860040   12.61670268080634   10.90648869546848
C         2.55317277261044   13.38369455613539   11.86633922007940
C         3.36752466714800   14.51079162205943   11.97543783883081
H         4.23560354912180   14.50849447268886   12.61633719448534
C         3.01643888735250   15.65171133746088   11.27032126645935
H         3.61564210350962   16.54979078696587   11.33166226358107

