62
CSD_code = MESYEP | q = 0 | S = 0 | Stoichiometry = C21H28AuB10PSe | MND = 2
Au        0.35692036059446    1.50546590835938   10.18715811114330
Se       -0.99655317059977   -0.32951582088578   10.94398349709145
P         1.62134539724252    3.32033211547851    9.64597866281947
C        -1.01064351022433    0.04062556494397   12.89758794514094
C        -2.40827105243526    0.43182664088129   13.60486690969939
B        -1.75509910476877   -1.12618056661933   13.90533683174453
H        -2.28227666212152   -2.02359274172948   13.36243339526132
B        -0.01512290765841   -0.87639109540721   13.94676378189580
H         0.68441739822480   -1.68207077218463   13.45372787089498
B         0.30547236237096    0.83212600377233   13.64529762327709
H         1.21711173245380    1.13630154061502   12.95416283241438
B        -1.22804616913938    1.65798279982305   13.41476059857475
H        -1.43381112031663    2.45455133287635   12.56740491844655
B        -2.47527134446182   -0.18303910249003   15.20315760442315
H        -3.53373856527374   -0.50450701627473   15.60472921331215
B        -0.92909523831671   -1.01541935028730   15.46188864297958
H        -0.83158638439320   -1.95516723747437   16.16301310814729
B         0.36024372515666    0.21185833363037   15.30100190829491
H         1.38157378171575    0.13055558593667   15.88194109422682
B        -0.40199770339927    1.79474202816448   14.95989234190500
H         0.06956174100749    2.82085625606022   15.29972191468660
B        -2.15797824524099    1.52698882678361   14.89901691958160
H        -3.00506469747340    2.32056854828579   15.09591657721843
B        -1.17877735858926    0.64406773901133   16.08715090587702
H        -1.26355028289275    0.86895953601976   17.23966177476689
C        -3.66077382602895    0.51359955307143   12.76531376161640
H        -4.48006220577807   -0.01766234967945   13.24676452588848
H        -3.50356617046546    0.06282611463270   11.78354515446051
H        -3.96932507219588    1.54771083049971   12.61326259612614
C         0.67966422197620    4.80015391655231    9.18477366030442
C         1.12178358857439    6.08809614680731    9.47053545644101
H         2.05626123053691    6.23329526351412    9.99497469288191
C         0.35872473500225    7.17415209666196    9.08197513688334
H         0.69953483967948    8.17488638721074    9.30270419261368
C        -0.83937821674146    6.98183958081840    8.41195001753639
H        -1.43067491561838    7.83401109974512    8.11223523981698
C        -1.28340451270859    5.69946362898811    8.13059484678897
H        -2.21925341693077    5.55047153865334    7.61319267355570
C        -0.52807456913792    4.60901395944382    8.52000725551733
H        -0.86517205194837    3.59991313807034    8.31723536503607
C         2.63541370906968    3.87983496721388   11.03984760200962
C         1.97951922673203    3.99395914518971   12.26426086600961
H         0.92278851687550    3.77067037329965   12.32873700451748
C         2.68041502835194    4.37810258630643   13.39068339378687
H         2.17060672163592    4.45336800181713   14.33839864451636
C         4.03743077894588    4.64762395037222   13.29994112772434
H         4.58810056618731    4.94226400244307   14.18036713552590
C         4.69134093288912    4.53365175725689   12.08377978174939
H         5.74886850996083    4.74245476748221   12.01564410497895
C         3.99702887310685    4.14687507309963   10.95092637700118
H         4.50871784707695    4.05127612909207   10.00310573245168
C         2.80122914086254    3.09947904473108    8.28870402246915
C         3.62763806262613    1.97929225907101    8.36901895185746
H         3.54482900729349    1.32283222344231    9.22657415301058
C         4.53963386917128    1.71933141372035    7.36529572905055
H         5.18419552479915    0.85574949996864    7.43174039768931
C         4.61915558376764    2.56554386868177    6.26914480945720
H         5.32890780563412    2.36099025725650    5.48178803230439
C         3.78557815389053    3.66785533092121    6.17833261890606
H         3.84456315561083    4.32087878432873    5.32014246807298
C         2.87332719223780    3.93897195530034    7.18344563352163
H         2.22136515355484    4.79829864687070    7.11170185402761

