31
CSD_code = METHOJ | q = 0 | S = 0 | Stoichiometry = C15H10MoO4S | MND = 9
Mo       27.14712323715089    4.41905098072662    8.08954395357716
S        28.94199880555979    2.68758939331385    7.41386488496574
O        26.58511016020240    4.06065612704836    5.07557514820806
O        28.78302992717287    2.48085051180889    9.98679624867371
C        30.48029126761958    1.11319224166144    9.04360247668368
C        29.37646921228580    2.08608689323563    9.00226267077170
O        26.07896366934835    1.75919994315241    9.25834618648686
C        31.20421659725745    0.75043871624087    7.91026718116869
H        30.95766628317481    1.19599805654817    6.95824984450792
O        24.12241313107315    4.12178074384885    7.54138216479133
C        32.53373707784584   -0.74277238311859    9.23814929965367
H        33.33233291271778   -1.46625076881723    9.31152980671462
C        26.51657714168800    2.72586878396015    8.84001145434120
C        26.94970789854348    6.19665176297398    9.55203062600645
H        26.09354312596425    6.52092192557706   10.13360893328085
C        29.03290041999601    5.42121924173369    9.05157443986163
H        30.03357288308980    5.02233835621225    9.17574760631244
C        32.22685032036004   -0.17292842445189    8.01201592523155
H        32.78688527717164   -0.45189137982941    7.13195511143039
C        28.59219369393461    6.20738423273794    7.95347516248389
H        29.21315225894840    6.52753520030390    7.12510523597510
C        30.79510914789585    0.53825586363049   10.27585273357189
H        30.22239168326053    0.82774799640280   11.14417720720531
C        28.02635800066795    5.42069985301614   10.03234434131547
H        28.11524714500251    4.99618050456335   11.02286886444600
C        26.82061264283430    4.15700235452666    6.19099780618666
C        25.23764486037963    4.26796754108179    7.77501179788797
C        31.81615114481316   -0.38663711354238   10.36939030551740
H        32.05375374949670   -0.83210008505095   11.32398475631317
C        27.31158829500028    6.70341990896176    8.26779151196586
H        26.77120802954587    7.46634302154289    7.72008631446073

