55
CSD_code = METLUT | q = 0 | S = 0 | Stoichiometry = C24H20N6NiS4 | MND = 6
C         4.89349776345925   -0.69167003569411    4.41606077228587
C         9.28577586520024    0.73421846094611    2.44709454234268
C         2.75821442894662   -2.41272574915157    4.15655578688962
H         2.21385924235631   -3.22365275581612    4.62890410475756
H         3.19701821538797   -2.73795450356477    3.21953009808200
H         2.11219827187516   -1.55602414662972    3.99784574742462
C        10.66267256924819   -1.06468007717557    0.87608350181087
H        11.64747360516304   -1.41656256439667    0.58784414393754
H        10.12173794335173   -0.68272239692828    0.01544797541942
H        10.09538221240632   -1.85766991059632    1.35387460961536
C         4.52516411697797    0.83168311127856    1.36344333282160
H         3.71833200039904    0.23083873775114    0.95830915572683
C         8.01821613125551    3.03598686156930    4.66780186444783
H         8.94470741480827    3.35738857595020    5.12915982851722
C         5.12517324859885    1.88476481986203    0.60458501396892
C         6.75408644532516    3.55875455161459    5.08003576429120
C         4.75313227820575    2.13226192666585   -0.73959329920446
H         3.99164273417984    1.51767690571971   -1.19386480128836
C         6.64059930705504    4.43229477155396    6.19000067440803
H         7.53314258416902    4.71601576845855    6.72531727444539
C         5.37694977782595    3.12664393732575   -1.42940520616082
H         5.12847458393411    3.33670467691858   -2.46010125984234
C         5.40892250309353    4.87427981422264    6.56508813708278
H         5.28187542742324    5.53016455648592    7.41469987633463
C         6.36806577695074    3.90194115179435   -0.78615100769469
C         4.27185251676639    4.47009288916832    5.82870933701714
C         7.05144757321990    4.94797891639898   -1.43183134861316
H         6.81534456074062    5.15950453356000   -2.46505673607267
C         2.96856514955970    4.88766594617652    6.15204288521395
H         2.82963862257329    5.53361745257155    7.00727369143495
C         7.99563960840838    5.68016827188189   -0.76485951377008
H         8.52011275158103    6.47977604408669   -1.26616859888335
C         1.89947149795156    4.48233924859794    5.39998206240873
H         0.90032013425155    4.80249452425393    5.65501911450358
C         8.28577268771582    5.39840163499726    0.57853211885294
H         9.02839413305754    5.98855742831100    1.09443156602030
C         2.09597514035619    3.65019881391794    4.28793541685736
H         1.24372613064361    3.34666508501963    3.69777806793509
C         7.64004126891229    4.38744888496042    1.23417838370332
H         7.85257047503394    4.16658036031459    2.26801823002899
C         3.35021299197470    3.22489663802614    3.94878611703617
H         3.51428410196433    2.59003389736636    3.09221560790086
C         6.67290450775249    3.60255497705866    0.57260492878819
C         4.47185615649169    3.60889995918193    4.71263058824439
N         4.39088089739442   -0.37656837696794    3.24755221912274
N         9.22250743956300    1.69223952764068    3.34025312283120
N         4.97891582330199    0.58485928886662    2.56229107757397
N         8.04879973116104    2.13499648202879    3.72192775063024
N         6.05890441041234    2.60088870739595    1.23348161318820
N         5.69661586504141    3.16437082319352    4.36799292369153
S         6.25829453232893    0.00770124583229    5.12921598595418
S         7.96174236379135   -0.01603864274653    1.71180806488848
S         4.08841784576139   -1.95273411967724    5.30588975239647
S        10.92599720160758    0.27916229355315    2.06444539144878
Ni        6.47177943308465    1.46309077686796    3.12135354924620

