25
CSD_code = METLAZ | q = 0 | S = 0 | Stoichiometry = C4H12Br2MoO4S2 | MND = 6
Mo        2.11022898992122    3.29644507247533    0.51171516837159
Br        2.89683447863360    1.07253637688233    1.46502442054740
Br        1.61600936554889    4.95778090443036   -1.25481505849694
S         2.04846566083446    0.94677035589897   -1.56912206134936
S         4.96799626672533    3.25689855130000   -0.08763597512683
O         0.73455145524566    3.48654470519298    1.35882682583589
O         3.35908650166150    4.11724212950428    1.22796898484388
O         3.72428253763919    2.80439617117323   -0.85033880089923
O         1.26480450059247    2.00562108149803   -0.82817438763777
C         0.79003572492969   -0.35413447687633   -1.74216013314412
H         0.68058169077380   -0.81523786549751   -0.76506707556311
H         1.12872123759910   -1.09056640554484   -2.46061824086710
H        -0.14765462685144    0.09517589266871   -2.04918203087459
C         1.97007813960835    1.57453830029596   -3.27548109580455
H         0.94796664336912    1.85177004706823   -3.51006295351211
H         2.34092287335765    0.81554615899583   -3.95396843531638
H         2.60275003629671    2.45757320641022   -3.31474048456186
C         6.23049555429066    2.51771978152215   -1.20708411444952
H         6.13732201962291    1.44065656332010   -1.11963547303741
H         7.21401318193647    2.82445265359773   -0.87332293729553
H         6.05945126733602    2.82360221790824   -2.23169342733855
C         5.22962732295068    4.95421910659306   -0.67562049218106
H         4.90708651110203    5.01520059413412   -1.71013775474353
H         6.28136862920469    5.19383875449553   -0.57309474913837
H         4.63147403766936    5.61661012255371   -0.05607971826138

