54
CSD_code = METSIN | q = 0 | S = 0 | Stoichiometry = C29H21N2NiP | MND = 7
Ni       -2.40432032783964    3.22010946022812    7.67972931558262
P        -0.88828004350956    1.72465271730887    7.41855476547412
C        -3.70012866342895    2.25253978485720    6.83085134565569
C        -4.53637222665472    1.56107557328963    6.26746516593200
C        -5.50020496839724    0.78198646915931    5.64008615353572
H        -5.83877341775090    1.08992691921521    4.65724583823337
C        -6.02744031802830   -0.34551470143901    6.19709830914173
C        -6.99937347302329   -1.11407527243319    5.52503038343659
N        -7.78955096207465   -1.73257342095321    4.96836666462793
C        -5.63725259896726   -0.80914024920248    7.47040092365853
N        -5.32676197177235   -1.19756932114576    8.50433241447341
C        -3.18331293864249    4.31999399734327    9.31941668508245
H        -3.87722447689067    4.03887413694080   10.09488466987665
C        -1.79957263990750    4.33491343823960    9.39614827824158
H        -1.19994015108012    4.08910493063938   10.25936411961305
C        -1.28599492030796    4.93489527720140    8.18590606429337
H        -0.24871599037451    5.19707230481479    8.03012785948027
C        -2.36233985548557    5.32234996873617    7.39007388664598
H        -2.32420155130349    5.91185579987398    6.48820424867403
C        -3.54348091866396    4.84418797805850    8.02871438814647
H        -4.55325622506950    5.07817984049247    7.72256852832552
C         0.82419688425648    2.28485025472933    7.68286067485255
C         1.63859068838346    2.66498882757453    6.62244650096691
H         1.28010091886005    2.56502257506569    5.60736156228929
C         2.90396365594877    3.16772990311180    6.87074057848739
H         3.53624551593366    3.45889634517777    6.04484532216144
C         3.35777005257440    3.30351288201735    8.17228332946591
H         4.34360519465593    3.70103280512458    8.36198343508745
C         2.54431061457754    2.93420083662464    9.23261050026696
H         2.89598244489078    3.04357062761693   10.24813103954595
C         1.28038371503412    2.43182194259849    8.99077132717482
H         0.63768982689451    2.14346832119227    9.81231614813577
C        -1.02427016112458    0.27885829687779    8.50700573295483
C        -2.26525601482312    0.00784093412602    9.07271686211994
H        -3.09346349010765    0.68048013051876    8.87168177251901
C        -2.43499129522499   -1.10420300605021    9.87722492607394
H        -3.40598309580975   -1.31621213154137   10.29528143295476
C        -1.36098998551266   -1.94258415928271   10.12727789633095
H        -1.48901540227928   -2.81212536100233   10.75460812835442
C        -0.11703922272723   -1.66545564042658    9.58080712892939
H         0.72128289402513   -2.31569699325138    9.78551149849733
C         0.05739330864021   -0.55787557900410    8.77137244984963
H         1.03131588664501   -0.33538359675841    8.35574737625617
C        -0.83685129342221    1.03665136094152    5.73232193842085
C        -0.36703661708268   -0.23653862300909    5.43777926969707
H        -0.03338536375085   -0.88940692418106    6.23063143508930
C        -0.34692784802041   -0.67336071586797    4.12437636214199
H         0.01114279199688   -1.66645507955673    3.89635546295027
C        -0.78760130877652    0.15420566472896    3.10477368181682
H        -0.77101731335989   -0.19433713589263    2.08283237705479
C        -1.25980514732524    1.42447192313210    3.39594108304420
H        -1.61104471218118    2.06722784550606    2.60239104949181
C        -1.28855031200691    1.86202079998290    4.70616874448588
H        -1.67914717090292    2.84443703754044    4.96127296455752

