67
CSD_code = METSUZ | q = 0 | S = 0 | Stoichiometry = C30H26N4O6Zn | MND = 4
Zn       11.50066393921256    8.58729711613761   13.31814584004371
O        11.60713376505635    9.92070531692709   14.59460018547230
O        11.28066069589061    9.35184019312936   11.64904578772500
O        15.97817227502282    9.52326999299192   18.95877229451899
O        14.82334181492840   11.17928307791346   19.70120450772798
O         6.60321177424571   10.90475050741228    7.93370892524243
O         5.57339415020053    9.54756904921481    9.24703540255958
N        13.24589272219503    7.78160156420690   13.68597563546157
N         9.78463824218959    7.62546687689392   13.34854973574226
N        15.05941040875381   10.31817657327262   18.87557800616907
N         6.57020920761924   10.14423941983138    8.88181080034876
C        12.45485825089310    9.99628852165181   15.54180945011299
C        12.28757978183785   11.00738610956923   16.53502734849890
H        11.45298918824860   11.67837652927790   16.40589075121173
C        13.12215296955421   11.11989120976795   17.60386991243050
H        12.98062828723531   11.87860529561506   18.35882499797249
C        14.19987613761506   10.22640272115454   17.74124422683218
C        14.42906681751568    9.26147434936915   16.78367679873521
H        15.27781785396856    8.60313630741673   16.90709738918312
C        13.58604362965596    9.12027962229651   15.67834104339738
C        13.91991901864017    8.11178936603648   14.72744670027671
H        14.86371971658286    7.58992195615859   14.92194373718532
C        13.79630021097284    6.78418560800731   12.78238887188990
H        14.61260764048390    6.24272350991662   13.28569509620145
C        14.36271679969269    7.50178876398878   11.55562613429061
H        15.26447905693670    8.04381955745369   11.83129772584476
H        13.64109792752402    8.21834095852826   11.17172450074689
H        14.60564940332201    6.77981967636407   10.78030995027410
C        12.69638465065050    5.80287864600022   12.44912935899609
C        11.76751280735870    6.05416816766613   11.44569265665717
H        11.85166224661682    6.93713628552646   10.83333739179231
C        10.74271958033184    5.15476118985591   11.20025332755858
H        10.02970855416893    5.36031534139490   10.41546469799038
C        10.63442137653722    3.99534723519407   11.94884829741533
H         9.83607180562230    3.29484741949510   11.75483625089363
C        11.56233426034177    3.73213999025926   12.94335261645369
H        11.49021030283708    2.82566513022102   13.52602146307030
C        12.58387808120890    4.63240247330551   13.19184169878406
H        13.30815259714252    4.41907916251686   13.96607717406271
C        10.15920954836007    9.51766775802559   11.05785286099582
C        10.10394240735295   10.38774627265595    9.92965267820165
H        11.02098279189785   10.88587321362069    9.65579122138000
C         8.95497669718836   10.59789003693196    9.22876032094435
H         8.92147343605350   11.26300859475821    8.37914162295087
C         7.77686608268872    9.93512039697601    9.61346408866374
C         7.78304202547795    9.08002439410643   10.69623975082481
H         6.85994985654348    8.58608381785302   10.96682400888700
C         8.94518216387837    8.85037125988865   11.43708297740051
C         8.84439167013333    7.93720393432578   12.53392527947780
H         7.86283916367818    7.47345843947667   12.63813870331060
C         9.59385869099780    6.63456188233961   14.39800751796424
H        10.17962195067678    5.76075310222914   14.08227849009618
C         8.15830195170167    6.17493174228890   14.65848970679076
H         7.75830001360261    5.62530756937873   13.80933535270512
H         7.50696360488141    7.01465590991990   14.88794512766337
H         8.16673141368667    5.50811506376647   15.51729807531095
C        10.21461431164458    7.17231021637057   15.66862490408161
C         9.68034718876733    8.29465531511517   16.29159421652994
H         8.84375633985995    8.81070770339046   15.84425794491933
C        10.21448352062475    8.75414137287308   17.48168132556870
H         9.78836822740266    9.62165285459595   17.96204898588912
C        11.28924172670147    8.10116421232071   18.06120371389374
H        11.70037671432679    8.45739459812364   18.99344638520348
C        11.83607536575858    6.99270165035963   17.43959275386484
H        12.67766839530792    6.48343380716960   17.88521138932609
C        11.30084584376739    6.53055941822842   16.24934226958714
H        11.71740094824002    5.65403467096292   15.77287163779765

