71
CSD_code = METSIO | q = 0 | S = 0 | Stoichiometry = C34H31Cl2NP2Pt | MND = 4
Pt        3.39562263841642   13.14586749024418    5.08044331071028
Cl        1.23638955382860   12.70904275451911    5.62699229552924
Cl        2.83089069115000   13.57804974766363    2.92066111766330
P         4.33282966523041   12.77968318320696    7.13443033523506
P         5.61822116878863   13.62362310362272    4.89622604116623
N         5.88565297300483   13.29397628730902    6.56615499744018
C         7.06394942718771   13.64661380738801    7.35053537159908
C         7.59944646832332   12.43750780087643    8.11951508279831
C         8.82381939576338   12.84889112867131    8.92405456260687
C         8.39931688878722   13.81030423314626   10.02556798598491
C         7.48168598264642   14.89186531061801    9.52354740047373
C         6.83302094016890   14.81477583626789    8.29210572613690
C         5.98255058406765   15.84629158070332    7.91435921110792
C         5.75818157996350   16.93295601887952    8.73521437849688
C         6.39419708767737   17.00614336088378    9.96184592576398
C         7.24745115591620   15.99046225821633   10.34363463629180
C         4.57521950770122   11.08032746620959    7.71223104444813
C         5.29428838961452   10.21856741511948    6.88591613720651
C         5.41171212965349    8.88182876920871    7.21038440938290
C         4.78987747407344    8.39010513518169    8.34860585727971
C         4.03693798534494    9.23407644492021    9.14810212868408
C         3.91808168763853   10.57577046524384    8.82949460344311
C         3.89005622965920   13.77684164646540    8.58422518247866
C         2.93944622542751   14.76738476262322    8.35938280674046
C         2.55458670615386   15.60655316268791    9.38835199200002
C         3.11960146288003   15.45932834039118   10.64418535664258
C         4.05749558107524   14.46512264842202   10.87436245868770
C         4.44113862345869   13.61903393576484    9.85129300817409
C         6.87404947442122   12.77967420793593    3.89805375309176
C         6.72087343922018   12.99957200798398    2.52861130942194
C         7.56929660104313   12.38567307441010    1.62951500237766
C         8.57154329178940   11.54343805455904    2.08948864850041
C         8.71384510748356   11.30938424722562    3.44649467742283
C         7.86290627137525   11.91910573378809    4.35318474887354
C         6.02300616929068   15.36848991014695    4.58492825698231
C         4.95359525134018   16.25784252848942    4.52949305629255
C         5.18356998108513   17.60387250720219    4.31642119555424
C         6.48202613146622   18.06376541615739    4.16143717797946
C         7.54758367706468   17.17869639529934    4.20669885832943
C         7.32304748173882   15.82932808524340    4.41190425984155
H         7.84639718999784   11.62952279601173    7.42938500000328
H         6.82235864141496   12.06475845065988    8.78966594217777
H         9.30367705460200   11.97066910341364    9.35956949361810
H         9.54610176483686   13.33465370098161    8.26389795681885
H         7.87343506065897   13.25245594575859   10.80805629579554
H         9.27663865897472   14.26441500701741   10.49178995811016
H         7.82409808210197   13.96161868652748    6.61736376016642
H         5.47295537208491   15.79215465553286    6.96449197646709
H         5.08814856754657   17.71645576026447    8.41630945643664
H         6.22689667342311   17.84890112231561   10.61537459965669
H         7.74816944875657   16.04069614160144   11.30028524115768
H         5.74574288674260   10.60995171908956    5.98208210821726
H         5.97414317849468    8.21751195293769    6.57090128673132
H         4.87698143482554    7.34385135835556    8.60088888035830
H         3.53124807237988    8.84402895352249   10.01904404464328
H         3.30976926649518   11.22975044277209    9.43799468660934
H         2.49968059498043   14.85531866469970    7.37123438595996
H         1.81371454463991   16.37192154139711    9.21326146241578
H         2.82508414427424   16.11507237246851   11.44998026163988
H         4.49031868123311   14.34851652221804   11.85708039860517
H         5.16652561671026   12.84080935964756   10.03881570695169
H         5.91770661701623   13.64215188333247    2.19023530197217
H         7.44791975992536   12.55477351626499    0.57028207818028
H         9.23644286766009   11.06220574118931    1.38789034035802
H         9.48866730349940   10.64619934774519    3.80307575116931
H         7.97184945289358   11.72504967116089    5.40903317986580
H         3.94343180552748   15.86932194547211    4.63865177464078
H         4.35410388277999   18.29281906335009    4.26496001881048
H         6.66518856314801   19.11486718174822    3.99492252130919
H         8.55654311664707   17.54105749116482    4.07516897651772
H         8.15165061477823   15.13398363841765    4.42575284580782

