77
CSD_code = METTIR | q = 0 | S = 0 | Stoichiometry = C32H37ClIrN3O3 | MND = 8
Ir        4.83664429661437    3.69211790689355    2.04137956274251
Cl        6.83766516069598    4.75200377410213    2.60592073035542
N         5.98243250786470    2.02118200226440    1.59047341622595
N         5.26741015948078    2.37785614544442    3.58567627294829
N         6.75234552219885    0.50514038053596    3.25440234177904
H         6.84482395061848   -0.25074004324174    2.58513093102019
O         6.07737059314645   -0.68575262926261    0.86658170143000
O         4.21800843271248   -0.05459963236617    4.30011276700498
O         6.96810898696409   -2.07292910190714    3.90659561429556
C         5.99586278030877    1.55441776516830    2.83777488768576
C         6.59555547536673    1.58925828055996    0.43437610774631
C         6.63581657855212    0.24162019721510    0.01446086140868
C         7.20092843541838   -0.08061408483998   -1.20846882451331
H         7.23937546655062   -1.10786662908335   -1.53614711468008
C         7.71133856974540    0.90575651913051   -2.03817567523030
H         8.14214679267064    0.62846830502852   -2.98821778748718
C         7.65791627895058    2.23085051675648   -1.64767877096252
H         8.05076578751441    3.00438405960150   -2.28985086110263
C         7.10255939795488    2.56271111587663   -0.42844935385830
H         7.05729771614087    3.58949690198585   -0.09813706621713
C         6.09488262729171   -2.04125515824132    0.49967210315789
H         5.52896152455815   -2.21826032106170   -0.42071288685752
H         5.61829601366676   -2.56953995124139    1.32424137200429
H         7.11731488295276   -2.41344781313785    0.37520058721675
C         4.71967769541157    2.18718473853665    4.83401450054182
C         4.16598794014264    0.94894119382672    5.23008143367300
C         3.60165594041672    0.82841049556807    6.48850880459837
H         3.18732850939675   -0.11341455583879    6.81323719600033
C         3.54721669508088    1.91758524807730    7.34629570498369
H         3.10172903263639    1.79889700756647    8.32244310315917
C         4.04755381345904    3.14303071481115    6.94859198918461
H         3.99378082603346    3.99373013442796    7.61071708240947
C         4.62493266412454    3.27423498438995    5.70040726233671
H         5.03222888788110    4.21658166395985    5.36656091834191
C         3.77529663484663   -1.33227865663671    4.66980271159991
H         3.97658805344413   -1.97104658232057    3.81097481652284
H         2.70080398255767   -1.34372874240776    4.88595652317782
H         4.32365417521865   -1.70997460024527    5.53967034732242
C         7.05873021734098    0.18606796302525    4.57126438844676
C         7.17417540215166   -1.17134419372100    4.92621952362324
C         7.47270446003341   -1.51199286870110    6.23406843848029
H         7.54727038165479   -2.54680065251117    6.53075640128506
C         7.67153621233755   -0.52147561622333    7.18633840203316
H         7.89082214662894   -0.80551414407848    8.20433374154779
C         7.60767281049358    0.81057267765125    6.82906257393014
H         7.78954682344916    1.58105631454668    7.56159404548149
C         7.31468800400115    1.16347865282667    5.52315793221435
H         7.29576361659223    2.19977414401402    5.22791713218821
C         7.17954420553209   -3.43422271260636    4.17824395086712
H         7.03948764475114   -3.95355916621028    3.23061551878529
H         6.45826755110739   -3.81926514749851    4.90760649404184
H         8.19515097098030   -3.61943865583337    4.54257186103435
C         2.67060645790902    3.41994639435040    1.63418964139925
C         3.32261545979850    3.65330072304140    0.38848293850042
C         3.95137895292744    4.93554152772982    0.44940099740661
C         3.61574627493366    5.53067512129941    1.72130425623786
C         2.82899791504420    4.59742820808188    2.44953716972011
C         1.80497893605824    2.25325494148677    1.98145955082284
H         2.14539226725504    1.35109663785036    1.47811850607848
H         0.77265377203610    2.44531129216276    1.68148792786475
H         1.81973929612212    2.07172995588386    3.05418590139423
C         3.30487927292246    2.75232651148779   -0.80248437132400
H         4.26117022792471    2.77410492699152   -1.32193881996502
H         2.52866256264891    3.07494601363610   -1.49864562707119
H         3.09904222388487    1.72527336804350   -0.51161107745077
C         4.59628173177228    5.66619921271860   -0.68626681124161
H         5.41689670423699    6.28215525138761   -0.32544222073303
H         3.86792591090578    6.31832705433155   -1.17272094213834
H         4.98294315275270    4.97072300150828   -1.42703670937538
C         3.94295309425068    6.94166726455772    2.09400701236779
H         3.58743423242572    7.17758529983108    3.09302218900686
H         3.47848191849785    7.62752437100941    1.38466282222434
H         5.02004055009078    7.10042555300679    2.06870299873696
C         2.13937431725156    4.81905569383774    3.75726937219002
H         2.25839951258770    3.95817197692937    4.41371833991056
H         1.07223327668599    4.97577528357747    3.59012409808501
H         2.54084874345536    5.68920627076362    4.26919914342680

