83
CSD_code = METTOX | q = 0 | S = 0 | Stoichiometry = C35H43ClN3Rh | MND = 8
Rh        4.23904620284184    4.29984426135628    6.65638996607723
Cl        4.79464062476224    2.66991434675394    5.11468077829263
N         6.02198524955123    5.21044534895179    6.16154662082330
N         4.18759445223299    5.64345069115206    5.07623553818942
N         6.16094803160377    6.71155538421460    4.30082142274138
H         5.59241840663209    7.18607279365520    3.61343853453875
C         5.48646837924842    5.89998152745586    5.16423863232950
C         7.21975868995582    5.48849821715825    6.79589766707669
C         8.04760007929642    4.45684517380636    7.26568479421908
C         9.23468265324714    4.79039094925083    7.89823196296959
H         9.87576380231730    3.99213786966791    8.24759779559266
C         9.63373053025143    6.10574209517199    8.08391206419212
C         8.78776908523018    7.11807581753076    7.64640144780434
H         9.06646559505683    8.15148175897739    7.79695102071765
C         7.59432213972927    6.81619850514220    7.02871978502682
H         6.93411203286460    7.61020846598008    6.70944354931757
C         7.66451657290223    3.02656832020064    7.06455700455948
H         8.24574051245719    2.37153990064333    7.70953585079243
H         6.60074753419320    2.88473828120341    7.26085007637411
H         7.83230794392485    2.73126616101401    6.02916869265330
C        10.94082623883870    6.44009995278069    8.73731963407842
H        11.43068955479928    5.54412900526305    9.11012165133020
H        11.60495604936846    6.92381536552070    8.02109285471774
H        10.79103078481147    7.12822812518466    9.56850856205253
C         3.24504742210273    6.38202398724887    4.38517483841790
C         2.17853327406782    5.74714771094651    3.72578055584064
C         1.22686950868144    6.52623645319242    3.08874945642033
H         0.41057231630712    6.03210467708363    2.57939475769724
C         1.28920963686961    7.91313644874942    3.07394650881214
C         2.33855772365526    8.53090390065042    3.74323759372709
H         2.40167191589943    9.61008676418374    3.76079513512783
C         3.29352736331188    7.78130146463267    4.39861631562553
H         4.08133410084657    8.27688694860402    4.95043115399089
C         2.09071379544494    4.25694599988306    3.71361954031811
H         2.19075838283334    3.86446879589322    4.72743672409073
H         1.14935229172143    3.92158568766157    3.28531517827434
H         2.91331024959135    3.83402460783826    3.13767587464229
C         0.25564366005074    8.73301816319690    2.36193841018298
H        -0.53109281046778    8.10091198337614    1.95811013784898
H        -0.19297713482180    9.45790320205036    3.04040775781937
H         0.71033457602602    9.28567046418609    1.53975408828132
C         7.54467984714238    6.64009287281663    4.05459001063059
C         8.24637546636354    7.81834446233140    3.78374562231519
C         9.61586027493984    7.74282104921686    3.59618376185497
H        10.16823691175369    8.65072288913009    3.39562553333235
C        10.30336821915210    6.53780648171614    3.67490702904037
C         9.58169896276341    5.37755491652365    3.91368248243585
H        10.09112078745445    4.42648991344817    3.95871959068208
C         8.21270747978194    5.42362867231457    4.09088531796006
H         7.65000077639225    4.51777064894385    4.25499275709497
C         7.52121087435462    9.12866348550003    3.70895503769619
H         8.22443912053842    9.95203197173860    3.61693403000604
H         6.85314032888555    9.15054674051065    2.84652110447099
H         6.91773476320067    9.28318009401899    4.60254651706982
C        11.78998631730018    6.50616761839544    3.48548310901786
H        12.18948679862221    5.52353613423097    3.72190309823058
H        12.04543565633483    6.74301582257285    2.45257715703727
H        12.27248360153085    7.24375546013711    4.12479942104735
C         3.44738887824235    5.29769553439985    8.41921321780767
C         4.30538603788065    4.23753261817131    8.86818615464988
C         3.78485595482523    3.01153249764774    8.36659589791342
C         2.56090191385860    3.30298518130737    7.65428430584424
C         2.34198418538802    4.70690227589191    7.71578231214284
C         3.54632205805500    6.72989426969797    8.84047336946886
H         3.07753228343133    7.38333655388419    8.10744956886384
H         3.03826577533460    6.87074779749085    9.79718030350927
H         4.58637671964186    7.02691743775794    8.96107750797879
C         5.47043754754742    4.42523938782843    9.78754742816215
H         6.01158931996619    3.49458568371340    9.93419489443984
H         6.16930975853044    5.16544254564720    9.39838551014270
H         5.11046755666643    4.77501845153819   10.75640599297002
C         4.25041381470947    1.62180902634253    8.67100069077033
H         4.33995469285766    1.04004544403962    7.75467864416621
H         5.21455433389403    1.62594749782241    9.17272811284114
H         3.52338709854663    1.12756563301503    9.31779672900882
C         1.62671771781604    2.24608612626499    7.15235352840500
H         2.14929046614527    1.55560415374543    6.49184329657025
H         1.23425271221896    1.67658073220476    7.99671632016699
H         0.79035236439449    2.67862607815614    6.60916258290335
C         1.13968371997771    5.46278428549447    7.24441622661598
H         1.42324285020099    6.31974267249491    6.63405581380029
H         0.48119348101118    4.83120937293344    6.65420686258739
H         0.58508515417630    5.83085393160776    8.10918321489095

