81
CSD_code = METTUA | q = 0 | S = 0 | Stoichiometry = C30H44Cl2O4Zr | MND = 6
Zr       -1.44054033842453   -6.21895951215727   -1.40367536127764
Cl       -3.59553041509312   -6.89279439443409   -2.17561237126739
Cl        0.33587070626927   -5.68260729976530    0.09714691109420
O        -1.37313839043945   -4.49646260413317   -2.20065633138462
O        -0.58877500512253   -7.61049739638728   -2.37600664359033
C        -1.60354460338809   -4.63827574632366   -3.51654600692076
C        -0.73735951978849   -5.47408061229861   -4.25238081324884
C        -0.97272647798717   -5.71101854625931   -5.60128087549598
H        -0.29470656680259   -6.35821358447777   -6.14089311959771
C        -2.04840422944763   -5.12930697889372   -6.24822458379847
C        -2.84025823458698   -4.23697086004827   -5.53695324806604
H        -3.64222208113804   -3.75133375517457   -6.06841975502753
C        -2.63830011845589   -3.95179737922413   -4.19537926946450
C         0.57647280376376   -7.13435208095946   -2.84549415200236
C         0.53726459936048   -6.00045351229988   -3.68336557543265
C         1.71833173448587   -5.42391847578786   -4.13659918474217
H         1.65863206341172   -4.55216952163863   -4.77399158207302
C         2.94693112717978   -5.95325152184605   -3.78697291684228
C         2.97102228488486   -7.12382108740366   -3.03834695797678
H         3.93531121810659   -7.55261151660450   -2.81972830242735
C         1.82354284355106   -7.74727058259949   -2.57485342583218
C        -3.46844830309329   -2.89721801272882   -3.47173199423055
C        -2.51711932232725   -1.83060887022234   -2.90760371018316
H        -2.01016197966752   -1.31497980167967   -3.72087932686287
H        -1.76331205199823   -2.28735063249911   -2.27091994667835
H        -3.07189210744792   -1.09662844251324   -2.32495920827090
C        -4.24098348957264   -3.56744466312564   -2.33056904633055
H        -3.53331544634495   -4.02368793688543   -1.64206208741992
H        -4.88998772550416   -4.34743396242301   -2.72504117339109
H        -4.84986396555790   -2.83335539631163   -1.80278940351816
C        -4.47877348160362   -2.19454407207324   -4.38376343549534
H        -3.98317893852977   -1.70209012883836   -5.21705103915104
H        -5.00623862224871   -1.43397510679192   -3.81036446194503
H        -5.21557127406593   -2.89602476598974   -4.76735193418806
C        -2.34680101398561   -5.43875387070409   -7.68514636412166
H        -2.77537851168969   -4.57444020826917   -8.18856875399578
H        -3.06638816754532   -6.25625085622499   -7.74749245751490
H        -1.44429850887901   -5.74285807976552   -8.21071194859749
C         1.88445725111287   -9.07792801550522   -1.83294125633822
C         1.03497448781778  -10.10378881096162   -2.59892344226070
H         0.01775729906621   -9.74129754399242   -2.72564572880819
H         1.00671795864654  -11.05052187394564   -2.06143327174375
H         1.46041234501689  -10.27868601510428   -3.58518062293815
C         1.32547467968986   -8.88484464952116   -0.41929799567402
H         0.29579663282317   -8.54132660275106   -0.48842909489851
H         1.90497819899371   -8.13258371382958    0.11311733281445
H         1.36684598067735   -9.82198685577399    0.13587284021272
C         3.30558836923951   -9.63665897200002   -1.71261232502577
H         3.93871629349173   -8.97615214145235   -1.12531647003630
H         3.75459586687390   -9.78869127071103   -2.69125142403889
H         3.26690281080209  -10.60061002835761   -1.20789229321221
C         4.22874502142076   -5.30507743979854   -4.21904977000143
H         4.04441261992120   -4.55820959663336   -4.98714738122410
H         4.92484555234164   -6.04617789462697   -4.60831535369352
H         4.70379567012222   -4.81322812575813   -3.36994859419979
O        -1.90592194504029   -7.81220897623946    0.16865601792116
C        -2.45740001407479   -9.07993371510489   -0.24050701986925
H        -3.54996156537383   -8.98043237389359   -0.30178739270828
H        -2.06923424000909   -9.31662068470366   -1.23672104562550
C        -2.05025172878422  -10.08313843362811    0.83235849157201
H        -2.73803855251883  -10.92312383222341    0.88854319167941
H        -1.04452300613890  -10.45663956458469    0.64338304297584
C        -2.06499702835633   -9.21147511904257    2.08493089330876
H        -1.45614366087364   -9.61282889625623    2.89093108809972
H        -3.08768641805849   -9.08619643609983    2.44398834362568
C        -1.51138146742143   -7.89113023577593    1.55430675172854
H        -0.41668409629575   -7.86085202826965    1.60959292266635
H        -1.90638548000678   -7.01785939587382    2.08258152130025
O        -2.65998715375250   -5.23276751309272    0.25924376453259
C        -2.20444748338211   -3.99335493160403    0.83887999918373
H        -1.68903187285528   -3.41950675705076    0.06139990454073
H        -1.48774735924917   -4.22762186976833    1.63807740571059
C        -3.44624756557195   -3.30200314745130    1.39041646292919
H        -3.20897631184222   -2.63037956557562    2.21161677870750
H        -3.95189685479762   -2.74146185830827    0.60487831890075
C        -4.29478663733061   -4.49610921424015    1.81815022244882
H        -3.94852289094366   -4.87879631358469    2.77957142513161
H        -5.35367684447536   -4.26241559227193    1.89307439232046
C        -4.00774559612893   -5.49647246980575    0.70154294139439
H        -4.68988583190612   -5.36057214063304   -0.14622597935014
H        -4.07121592314752   -6.53821760843927    1.03025226513944

