76
CSD_code = METVEP | q = 0 | S = 0 | Stoichiometry = C32H37N6Rh | MND = 8
Rh        9.57952702082538    6.02817700723585   11.28501608908940
N         8.40129705172905    4.34066930417776   11.55745855199926
N         7.69675874748610    6.31585099673846   12.15414078903663
N         6.18756271978944    4.51281727974480   12.45538408484139
H         5.51017966911859    5.18476749108696   12.78835712878618
N        10.28387009855043    5.68832409568828   13.13364467673579
N         9.73744451359584    5.13019945564679   14.00582494958143
N         9.32212572997757    4.60428819261481   14.92369553388180
C        10.19425448753224    5.78281511208288    9.16772516768028
C        11.34280468833462    5.99741359169169   10.00539876709378
C        11.23137106138896    7.31249661857704   10.57837946874818
C         9.99361342958509    7.86938834594749   10.15693861138823
C         9.34200401766590    6.91292305898931    9.29015275786337
C        10.00158875817126    4.60867940559969    8.26180381043613
H        10.29002360533386    3.67931367201722    8.75047557776923
H        10.62138364199789    4.73408065336324    7.37212692117296
H         8.96468647400279    4.51558059094840    7.94811532604512
C        12.59000302702219    5.16809256861217   10.01166321646583
H        13.05368098397402    5.16892280600648   10.99568265603226
H        13.30550974154410    5.58473612997238    9.29939403695563
H        12.38062788163700    4.14111620839326    9.72342776645891
C        12.31486689921787    7.98754937349372   11.35854716329881
H        11.95162435316198    8.89043089347085   11.84210684159975
H        13.13205360628873    8.25721541967004   10.68705710873611
H        12.70756616895982    7.32266416952054   12.12508414066216
C         9.50343350784513    9.26676244990946   10.37380826943204
H         8.46029453287991    9.27799800602678   10.68864103503334
H         9.57894894940192    9.82291432742413    9.43769387863484
H        10.09345336055301    9.78035758884521   11.12808439654037
C         8.10285332218127    7.19904627605469    8.49957066658575
H         7.62614834377227    6.27924386933760    8.16720774898689
H         8.35694154072343    7.79012402811954    7.61710277059108
H         7.38635749145357    7.76698445721651    9.09129923618251
C         7.37718574880541    5.03190881348311   12.04510055357806
C         8.33188740233337    3.10072838632828   10.94726643806584
C         9.38276275101712    2.17957880475716   11.09301860004992
C         9.29381272045935    0.95956491532480   10.44232924135506
H        10.09778555991585    0.24592013297350   10.55852787396910
C         8.19891806341251    0.63223068110391    9.66117243226669
H         8.14918410358120   -0.33003569820508    9.17404347361305
C         7.17406752793262    1.54895886215549    9.50205810691147
H         6.32024687486814    1.31044069852780    8.88470589893297
C         7.24746802135707    2.77646274173908   10.12607334374735
H         6.46162051165851    3.50490917887850    9.98457900064362
C        10.56146454724970    2.50938322992354   11.95227635045448
H        10.88879815619081    3.53575058645968   11.77282058968091
H        11.38593242580244    1.82598238254522   11.76271124676248
H        10.28959128124141    2.43749004482689   13.00528495587942
C         6.83020603024144    7.37914634097064   12.31445004230969
C         7.21238818873299    8.48133487334548   13.10177875540067
C         6.35759338831959    9.56763528131656   13.18875443969996
H         6.64882844071278   10.41474646645699   13.79390872736737
C         5.14066730789509    9.58922108183829   12.52665019322855
H         4.49035699983888   10.44639409226967   12.61508363125010
C         4.76870797632077    8.50914122636779   11.74526124288558
H         3.82794107123789    8.51844751701264   11.21373904056207
C         5.60902742684479    7.41911234984458   11.63068333235261
H         5.33748838696575    6.59352980444361   10.98622643613562
C         8.51335568068756    8.45703885828362   13.83730516915056
H         8.46114614350806    7.74796793306277   14.66358342335411
H         8.75476541284920    9.43945461687325   14.23545663797707
H         9.31833168756319    8.12065532171892   13.17877658967240
C         5.96956621950351    3.16245319100122   12.79421470195249
C         4.74182560782978    2.57876824931776   12.46949239037669
C         4.54911938475496    1.23895555101408   12.76904841286607
H         3.60681691507711    0.77394510871055   12.51607063508329
C         5.54398685316958    0.49066128325313   13.37331018830239
H         5.37674956969313   -0.55476129012980   13.58491248863841
C         6.74418139414914    1.08770474375878   13.71658502021392
H         7.51561611105457    0.51711494653342   14.21033240112554
C         6.95478718993698    2.42429500867967   13.43767721174880
H         7.87073421257692    2.91041726964719   13.73626959131893
C         3.66703896815076    3.39225199396989   11.81277218101558
H         3.28794553593855    4.15285715433903   12.49719383952197
H         2.83634581002722    2.75902627370760   11.51285802254323
H         4.05409696488765    3.90046754734661   10.93042800368983

