45
CSD_code = METVIR | q = 0 | S = 0 | Stoichiometry = C12H30N2Zn | MND = 4
C         0.08443007736250    2.64330230104331    5.49229002378370
H         0.99057164623793    2.03961850504987    5.52151358733213
H        -0.08862454232390    3.03444545421896    6.50069710874167
H         0.26704443511763    3.49344986857862    4.83666962374805
C        -1.11838878173589    1.82784853765781    5.00724882659665
H        -1.25948466858055    1.01894613372421    5.73762537734474
C        -2.36429238188851    2.71522960993827    5.09518421812146
H        -3.26646101629872    2.16404684127489    4.83405365171202
H        -2.28212898246648    3.56697122273280    4.42156149905252
H        -2.49371379961930    3.10792019022797    6.10959085977680
C        -1.53736914022347   -1.99503460278230    3.31669579530215
H        -2.01235246117701   -2.94609040269169    3.02188324701930
H        -1.53210776578278   -1.94947180572227    4.40654167550049
C        -2.70777407864224   -1.06054570021759    1.43991679342403
H        -1.83303673852221   -1.14522599091619    0.80196735151151
H        -3.28377991942659   -0.20148538423324    1.10484446018211
H        -3.32262486136305   -1.96556397713354    1.32498235299038
C        -3.49747085990200   -0.66915398721271    3.64124358058888
H        -3.20806020830305   -0.46435192981331    4.66920322248374
H        -4.15062334232305   -1.55357500479955    3.62175695305265
H        -4.05667921102185    0.18537391150104    3.26597849573421
N        -2.30670283875391   -0.85707059279010    2.82405128930463
Zn       -0.81686863568798    1.08718443523649    3.06398178293265
C        -1.71815889327959    2.64329294363623    0.63565818557863
H        -2.62429704273780    2.03960222016626    0.60642014347521
H        -1.54508892134293    3.03444493617844   -0.37274274588293
H        -1.90078651935991    3.49343829246417    1.29127647961727
C        -0.51534156053179    1.82784704645956    1.12071510219967
H        -0.37423190746962    1.01894460032759    0.39034118677560
C         0.73055816082488    2.71523568322641    1.03279330380395
H         1.63272587390255    2.16405933367123    1.29393566545016
H         0.64838296064296    3.56697717242401    1.70641556802560
H         0.85999319567533    3.10792157198174    0.01838643772962
C        -0.09635487048108   -1.99502931595390    2.81126059369453
H         0.37863180368866   -2.94608594472897    3.10606571812931
H        -0.10161716167361   -1.94945666691034    1.72141485647985
C         1.07404154120672   -1.06054779082896    4.68804955615889
H         0.19930255447427   -1.14523150617205    5.32599482012711
H         1.65004370953145   -0.20148720864398    5.02312900433576
H         1.68889099963833   -1.96556794711208    4.80298189547590
C         1.86374488147339   -0.66914318573333    2.48672780995181
H         1.57433669325951   -0.46433274614084    1.45876939004191
H         2.51689681838107   -1.55356561414771    2.50620959305136
H         2.42295100262830    0.18538292569717    2.86200094590227
N         0.67297475687509   -0.85706643273429    3.30391471364500

