95
CSD_code = METWAM | q = 0 | S = 0 | Stoichiometry = C38H43N6O7Rh | MND = 8
Rh        7.73180740916856    2.57894665185559    5.04644805587666
N         6.78029028998003    3.29532394171133    3.37894480625513
N         5.81676253503655    3.28207108277921    5.29628756005278
N         4.41397273585872    3.71437136667316    3.41489967571450
H         3.75776375319264    4.24994644687865    3.97106642435442
N         5.83817724487016    0.59365456347358    3.91725444324565
N         6.89773243471329    0.82910243124617    4.63804448531799
N         7.50673013730598   -0.24949374019117    5.04576292980934
O         8.34413363532130    1.49471819757770    2.30042244320264
O         3.76972613978846    5.15971266028031    5.65801234930022
O         2.70278585056629    5.38417377394186    2.24649483452283
O         4.06410650075756   -2.40744659673390    3.60529957702735
O         4.27491157810229   -0.81943403301264    2.02805424338101
O         7.05488923175807   -3.53651300120979    3.87142386174508
O         7.81198100213815   -2.90359803027572    5.89047844303108
C         5.61741862035648    3.46431323411200    3.98912723104792
C         7.12156356492387    3.47172691600717    2.05759827128051
C         7.97163433271638    2.51009738751380    1.46847933133841
C         8.35564651488558    2.65083438216029    0.14692609816310
H         8.98891893752169    1.91557253085822   -0.32466515982855
C         7.91865624844780    3.74255257497570   -0.59185853508012
H         8.21872932042243    3.83595805150731   -1.62459029131197
C         7.11364801387649    4.70319631508504   -0.01161642183952
H         6.78475845044153    5.55550809396104   -0.58675067312844
C         6.72376927843067    4.57571893032674    1.31008344371981
H         6.09857383202104    5.32455418460973    1.77226314648410
C         8.98045444390659    0.37368695549746    1.74085523734046
H         9.98236777431442    0.61755823061885    1.36801304814044
H         8.38786217219539   -0.05517377488842    0.92656498654493
H         9.06222395715460   -0.35616870446281    2.54475265903677
C         4.93136007090509    3.20952498495310    6.35099532337853
C         3.90289373549173    4.14844420928060    6.58520857059899
C         3.10917978105659    4.03297455224556    7.71440150029550
H         2.31876194621492    4.74382065177654    7.89791861502537
C         3.32148894196836    3.01659962027358    8.63281847947688
H         2.69059149183572    2.94988538258713    9.50578946777136
C         4.34163041001427    2.10667318470780    8.42898893672136
H         4.51687621596738    1.31548503902633    9.14208536669549
C         5.13541923302074    2.21008091498486    7.30423199024198
H         5.93872584815467    1.50622502311935    7.12787174812796
C         2.76473666444609    6.12472803461817    5.84402010324233
H         2.85271353682961    6.79982792211569    4.99386860919854
H         2.91262879198999    6.68719386848177    6.77122825347769
H         1.76673624287982    5.67424723303474    5.84612683238450
C         4.05399310599481    3.46411675678895    2.09340093704695
C         3.14673193745345    4.33892473155620    1.46944746275108
C         2.76972953646102    4.10674357921667    0.15760167806219
H         2.08272741701865    4.76973857864108   -0.34456166209280
C         3.28548252064064    3.01909595193445   -0.53272316402426
H         2.99120023165809    2.86044962259639   -1.55934475275580
C         4.15276025337371    2.14316561289967    0.09076666366248
H         4.53749204902159    1.28612100636386   -0.43947359737666
C         4.52745983867493    2.35661547322339    1.40518198868039
H         5.16198467616413    1.65650924461671    1.92366837654002
C         1.74404867769062    6.25246859431664    1.69845114657107
H         2.13568093217932    6.78744099770305    0.82703619540902
H         1.50948398399971    6.97118561617550    2.48299772855935
H         0.83138158574779    5.71815953624668    1.41514047225304
C         9.82197557064877    1.93096336116878    5.46621726798206
C         9.08362528388811    2.09941592503190    6.69472068881482
C         8.71993893059056    3.47674393446873    6.80245686539997
C         9.13740901881603    4.13802790330268    5.60400008101243
C         9.86309437352310    3.18345622265946    4.80221519703962
C        10.55671408237249    0.67821354461430    5.11434637698100
H         9.88545351830829   -0.17620505389835    5.17948441545391
H        11.37321322929438    0.52728292991568    5.82245447000225
H        10.97105011508548    0.72882320521886    4.11173077029337
C         8.98529320642713    1.04892431297209    7.75705923972147
H         8.28666508915150    1.34110626752897    8.53688221003696
H         9.96533927133281    0.89439606234755    8.21188706104124
H         8.65827332746545    0.10551276995347    7.32271293330140
C         8.09033768128951    4.13510059622753    7.98903610770427
H         7.50216381337589    4.99981752766015    7.69113507659831
H         8.87294399714842    4.47091866918963    8.67205441366726
H         7.43816440161459    3.44808256745165    8.52310031779472
C         9.10808694338755    5.61609500052255    5.35606794593881
H         9.09026474600527    5.82877526367688    4.28942077671367
H         9.99899874666841    6.08122967581556    5.78360254566638
H         8.23282915168408    6.07253489865754    5.81288013890868
C        10.63543864394717    3.53261204688853    3.56950597337619
H        10.97736849663696    2.63848441913712    3.05634418680787
H        11.50726185402880    4.12877045379905    3.84578729219573
H        10.03059914109749    4.11546633773319    2.87636806407068
C         5.73202979643840   -0.73778927267967    3.83230747605998
C         6.80529372747929   -1.28392103674254    4.56305998987586
C         7.20822737570931   -2.68377242506427    4.71019584720080
C         8.25017937745385   -4.23366625692250    6.11376729926642
H         9.02592644486393   -4.50486807735602    5.39369299727853
H         7.41612997631676   -4.93050714444332    6.00646807857907
H         8.64384081484144   -4.25896983397471    7.12676947578748
C         4.61893609316299   -1.42966814376099    3.17096065034317
C         3.17440149880120   -1.37606780201374    1.32903651225834
H         3.47861152477691   -2.28990254787029    0.81311434697791
H         2.85413556353873   -0.62130800626139    0.61447712257323
H         2.36758957571574   -1.61832524146331    2.02396001261167

