29
CSD_code = METZUG | q = 0 | S = 0 | Stoichiometry = C14H8HgN2S4 | MND = 2
Hg       -0.00022513282157    0.00042550011456    0.00032507551843
S         1.43922520481259   -1.64298374379874    1.23537895671178
S        -0.24535086177481   -3.85928703451159    2.45468468959858
N        -1.17951415149078   -1.89329002834363    1.06503331808746
C        -0.06672841211276   -2.39815306502167    1.53185223098486
C        -1.97350229742192   -3.77444543159012    2.18232958854879
C        -2.96704220852660   -4.63415496696554    2.61513444658992
H        -2.72254959638962   -5.50098382869161    3.20791659207383
C        -4.27296345516932   -4.34576378727108    2.26439621446465
H        -5.06524637324698   -5.00168822347456    2.59075839073435
C        -4.58142661587619   -3.22409965733227    1.49783954773280
H        -5.61066650904554   -3.02622869213761    1.24025537275700
C        -3.59512860445891   -2.36331761932784    1.06392081355234
H        -3.81444721302165   -1.48926952802463    0.46970448241721
C        -2.27539199557231   -2.63834231011058    1.40860835050733
S        -1.43918094124207    1.64313197150320   -1.23472022110297
C         0.06676596755264    2.39809825654555   -1.53168996193558
S         0.24528069403564    3.85938160584791   -2.45431078756512
C         1.97348880247157    3.77438710749877   -2.18235336377925
C         2.96700400878357    4.63405150405404   -2.61530739817941
H         2.72246768202545    5.50085910411630   -3.20810217274489
C         4.27295522761390    4.34565842121151   -2.26467513318175
H         5.06522042069594    5.00155010100126   -2.59114422048217
C         4.58146955309844    3.22403642374454   -1.49807903243774
H         5.61073018770587    3.02615677068583   -1.24058391122054
C         3.59519198845849    2.36332444774927   -1.06398194354642
H         3.81455172497391    1.48929258416483   -0.46975252458774
C         2.27543169987541    2.63833757140548   -1.40857701774238
N         1.17958120606528    1.89331654696254   -1.06486038176844

