36
CSD_code = MEVKIK | q = 0 | S = 0 | Stoichiometry = C18H10AuBr2F4P | MND = 2
Au       10.62869526387167    3.01681337743501    4.29201693365500
Br       11.47304728829530   -0.11600644932286    5.77783491184597
Br       11.38112767853862    5.05537113362620    5.21970171817050
P         9.89315782338812    1.13302054882284    3.28878462889789
F         9.66250312529165   -1.69294646884041    7.54512739031541
F         6.99743534028918   -2.20906512962248    7.30618599244476
F         5.62267862327774   -1.21075047782456    5.16458114139698
F         6.87615297720753    0.24441439713805    3.30670198159887
C         8.96215916866108    0.03446120432085    4.41642716485420
C         9.63868909596095   -0.46350596501626    5.53720957103460
C         8.98625175620598   -1.21870026129871    6.50198541505043
C         7.62441659180549   -1.48292189478117    6.38560822924209
C         6.92733163105382   -0.97423437119699    5.29365241311074
C         7.59420763590357   -0.22135416215324    4.33109946618556
C        11.12428011172719    0.01428185276756    2.56866899213902
C        10.96366188447046   -1.36679011591152    2.50244172717581
H        10.07925134257732   -1.83510893933845    2.91530781160670
C        11.94708340815860   -2.13773214740090    1.91068572863985
H        11.82769262970055   -3.20975118596213    1.86221125650832
C        13.08155186552760   -1.54007301424304    1.38455405720766
H        13.84583750302771   -2.14981843785279    0.92760896333466
C        13.23985867300115   -0.16511724796692    1.44799932706499
H        14.12528235533829    0.29964401498112    1.04227732142635
C        12.26413610019498    0.61319633821715    2.04229796548983
H        12.38070435772186    1.68757219231939    2.11179492900792
C         8.79692185340262    1.47648478627669    1.88915679041992
C         8.14456422254825    2.70629867183021    1.87615485572486
H         8.29395903538488    3.39988445910060    2.69476697701783
C         7.31190413585162    3.03462204530316    0.82306651704587
H         6.80387008501658    3.98681208872426    0.81722616647502
C         7.13760849548394    2.14264457130930   -0.22223607982188
H         6.48893750386055    2.39914117466955   -1.04598420020300
C         7.79786970420098    0.92373733061172   -0.21756465476417
H         7.66344992561709    0.23266424493334   -1.03615676838266
C         8.63038591143876    0.58568010129954    0.83220753875106
H         9.14713489599196   -0.36386826495661    0.83349782033389

