97
CSD_code = MEVKED | q = 0 | S = 0 | Stoichiometry = C46H36N4O8P2Ru | MND = 6
Ru        8.96365568046246    4.05052693237267   17.92170994120075
P        10.98034324919129    4.76090254727381   18.80243175942276
P         7.58916460427323    4.66341167459680   19.68955827884810
N         7.31034945871215    3.31671990609036   16.95215225359278
N         5.57053331474209    2.42115593818032   15.98415553158656
H         4.85106612503756    1.77394207395416   15.69530110861523
N         9.98312884253111    3.40409681072923   16.27500025703128
N        11.05510173331842    2.85552306251061   14.45494250096835
H        11.49124761103996    2.88244550368848   13.54437077511286
O         3.62094788809402    3.55694637727173   14.37001773806997
O         4.64263722848792    5.53437751557816   14.36218964303558
H         5.47704106543161    6.00145110925794   14.73067238196916
O         8.31567396922487    5.82728701345410   16.88833592991068
O         6.79708745823920    6.50145390206316   15.41395695675935
O        11.81701714810051   -0.47201606915782   15.69786343228789
H        11.28402173319358   -0.29910777930410   16.55497211878838
O        12.41144778403831    0.52120286479968   13.79674984257371
O         9.48452544076357    2.05184506408608   18.55010531595054
O        10.43442390832183    0.19595488734194   17.78032808731909
C         6.61215809069224    2.21317013360578   16.80880636705253
H         6.83751838332183    1.27082855019422   17.27101468320177
C         5.60381425381182    3.72595153242583   15.57800350905387
C         6.71040784591968    4.27504376857230   16.19043575376311
C         4.53243434661628    4.27783941013093   14.70539735689083
C         7.31003410096214    5.64934941618310   16.15436813573495
C        10.38116280648047    3.82702257669905   15.09684098538214
H        10.19790796614015    4.80779566617430   14.70010703511440
C        11.09117699343750    1.75478596384768   15.26534973733661
C        10.40627728877874    2.11468402828446   16.40620525974737
C        11.83115418297960    0.53000373234960   14.85785188134790
C        10.09404912948672    1.38377989947046   17.67600266054210
C        11.78165313666399    6.33151096502986   18.34156204970217
C        11.09886478019118    7.25906021546007   17.56290028493761
H        10.08678690557123    7.04500022619066   17.24564656673866
C        11.71892557908262    8.44155235014248   17.19436025020669
H        11.18621298515232    9.16013449100903   16.58931564486589
C        13.01793636147604    8.70028594767351   17.59789091132490
H        13.49997299469416    9.62360275705844   17.31205454913938
C        13.70707693287418    7.76947795700092   18.36141718901222
H        14.72451268670484    7.96676263034000   18.66627061281136
C        13.09638024049386    6.58565006493212   18.72900204047896
H        13.63579596458710    5.84754275880702   19.30774922027190
C        12.30645373644705    3.61523697766596   18.26108648625054
C        12.60801794986264    2.43403215911054   18.93033503536368
H        12.14998515580389    2.21882177484551   19.88378884036462
C        13.49655519696152    1.52652795558382   18.37829703860118
H        13.71075309191393    0.60672177690019   18.90057207490280
C        14.09296902130943    1.78433174611594   17.15613269151805
H        14.76941376265927    1.06631325584821   16.71871676432811
C        13.81507325492288    2.96927809091340   16.49268928100777
H        14.28606948208084    3.17990636183052   15.54327302557977
C        12.92714839277281    3.87684857841637   17.03845618839091
H        12.70491894349940    4.79790954857228   16.51384160265620
C        11.08221177373756    4.69568935677925   20.62144066503448
C        10.55705779043575    3.55369841258980   21.22348316944881
H        10.11666225442626    2.78203249263348   20.60446230258755
C        10.58175882915393    3.41722432993495   22.59916598735178
H        10.18902998157142    2.52128816896878   23.05659316439847
C        11.09505153521408    4.43460094458928   23.38653972180397
H        11.10756088951273    4.33324114664238   24.46165659045223
C        11.58070800217605    5.58831638723917   22.79412626787583
H        11.96384382799922    6.39066692576706   23.40767375890193
C        11.58003136750882    5.72165846302109   21.41693800607811
H        11.95812735350960    6.62831882240101   20.96752420965294
C         7.71763257332696    6.29072993441833   20.49834046597752
C         8.81730128397457    7.09906474916131   20.25647229279679
H         9.57892931362435    6.74762482913315   19.57435549119629
C         8.91918091192798    8.34375973779035   20.85229082716845
H         9.77860965361906    8.96695236054050   20.65297814620090
C         7.91406410535116    8.78929107146918   21.69319301309867
H         7.98917995194649    9.75925586684192   22.16195298868005
C         6.79866461915781    7.99669424985349   21.92063140781184
H         6.00534665012153    8.35253313385004   22.56168128123837
C         6.69323268395096    6.75527113461383   21.32313742608995
H         5.81203816120381    6.14798331531410   21.48098097151982
C         5.87066429381871    4.81094723904584   19.07200979587450
C         5.52036514205824    5.99434319900761   18.42103279063133
H         6.21779469540129    6.82123551009602   18.40569942928755
C         4.29337177788515    6.11317974497402   17.79495925351354
H         4.03984344081565    7.02866149713029   17.28273970529865
C         3.40246635909784    5.05176668936879   17.80612497166630
H         2.45216297495053    5.13631339507317   17.30171661610207
C         4.96411458722669    3.75609633011349   19.09446460611144
H         5.21628936790405    2.83932264169088   19.60960971656814
C         3.73631928802106    3.88057118322631   18.46629486505305
H         3.03806323797840    3.05616001254566   18.48778141290967
C         7.40881022888888    3.49841738116011   21.07962246981856
C         7.32693783546583    2.14827222825347   20.74354368194171
H         7.42583658211213    1.85944325178277   19.70579753964374
C         7.17563647404731    1.18819012790136   21.72587333381064
H         7.11628165718685    0.14391469031821   21.45642489964336
C         7.11393147375188    1.56706217862972   23.05749641903671
H         6.99461249481097    0.81954654025352   23.82791389294869
C         7.22756113181500    2.90401930603833   23.39923241958450
H         7.20405139362933    3.19975486132006   24.43803926522119
C         7.38096902472824    3.86887531736223   22.41835380115921
H         7.49510683739867    4.90432823897758   22.70179539215832

