36
CSD_code = MEVKEG | q = 0 | S = 0 | Stoichiometry = C18H10AuBrClF4P | MND = 2
Au       -3.47098689049509   -2.04818716777431    7.92391914966601
Br       -4.33532328463665    1.10773788806482    6.47371835277124
Cl       -4.15638342498301   -3.99042531938383    7.00250347999580
P        -2.74651829372051   -0.18115485444520    8.94046620260211
F        -2.50961898806088    2.63622907108441    4.67615358437952
F         0.17122917233681    3.07720274563244    4.87225894811672
F         1.55117728502678    2.04527058459323    6.99401433300719
F         0.28587670370465    0.62896043408686    8.87464250154453
C        -1.81061223636995    0.89805145467937    7.79872194945366
C        -2.49072690168276    1.41083428484497    6.68730968356137
C        -1.83212536127923    2.14610530251461    5.71076806523912
C        -0.46174578177853    2.37236886049145    5.80529250412603
C         0.23810988188365    1.84696481753927    6.88739609222318
C        -0.43495641459884    1.11520754396257    7.86212880808455
C        -1.65044153230706   -0.52269473498315   10.34032488269699
C        -1.43727947624594    0.39755845666401   11.36343851730902
H        -1.91762771982892    1.36545618830893   11.33459693035507
C        -0.60586373062808    0.06452493708097   12.41573663772656
H        -0.43517679679970    0.77758464635958   13.20828589563727
C         0.00671676922395   -1.17832811525375   12.45642599958395
H         0.65523282348197   -1.43072138451237   13.28162152883118
C        -0.21470127477265   -2.09862985477281   11.44518937939365
H         0.25678693428850   -3.06875301546083   11.47967370313757
C        -1.04594470832738   -1.77559502636892   10.38901740944732
H        -1.23534316472964   -2.48897498241679    9.59634983355332
C        -3.97047320240734    0.94420147806212    9.66128489826823
C        -5.11361947784136    0.35007084532484   10.18593536718563
H        -5.23686329531961   -0.72264542266811   10.10599209467501
C        -6.08146485276794    1.13285900645017   10.78739787422362
H        -6.97027752137534    0.67326797463567   11.19162108073556
C        -5.91159969626575    2.50610990240514   10.86034306184936
H        -6.66987911983010    3.11883822518101   11.32337324254513
C        -4.77408099652589    3.09844660575855   10.33497257352368
H        -4.64663970267455    4.16920585328700   10.38972995871311
C        -3.79842476976906    2.32347275969333    9.73532699205836
H        -2.91283095394347    2.78728001134772    9.32006848379089

