57
CSD_code = MEVMOP | q = 1 | S = 0 | Stoichiometry = C24H24AgN4S4(1+) | MND = 2
Ag        1.69378236563658    1.05909476586947   11.76100209126433
S         4.23597108917511    5.68299973289946   10.83245663665099
S        -1.05184065172241   -3.50551872054774   12.33539606014580
S         4.23251268195330    5.67305818815529   14.37135699912912
S        -0.89958306692925   -3.26494903088446    8.78109364759564
N         2.73194832876415    2.94166606295353   11.22667138668676
N         0.60596329560495   -0.82715639102413   12.17385486436314
N         3.18058329094322    3.76159396158137   12.20602014742435
N         0.15610030614880   -1.55955469635158   11.12670771060380
C         2.96634719509475    3.36555525797471   10.01228516859817
C         0.31034668865130   -1.31907171263414   13.34820558692427
C         3.61970882684990    4.55597807657800    9.65499673843139
C        -0.41311882273848   -2.49528581471481   13.60369804270286
C         3.86941218773703    5.00747769655213    8.36437726950196
C        -0.72687529332822   -3.01736712605253   14.85304227579853
C         4.53769401304544    6.22525568942001    8.33460122766440
C        -1.46115848614178   -4.19470141250726   14.78113987507981
C         4.80916555249642    6.72432750988340    9.59064232172483
C        -1.72071185611438   -4.59248591002020   13.48699429700994
C         5.49893004391732    7.99467431013046    9.91734999468820
C        -2.47585995264328   -5.79298049082034   13.05677985315750
C         2.98000746395888    3.40593282933943   13.41453620927684
C         0.41304066447312   -1.13270383783650    9.95279205361735
C         3.39131371381852    4.15612090473344   14.53351713385146
C         0.01218022323059   -1.78078382588352    8.76807183629692
C         3.21122710194567    3.83684392940441   15.86719397720575
C         0.25811407531689   -1.36895052176065    7.47092680602741
C         3.73935304428220    4.79340276092024   16.73361670592546
C        -0.27717751605168   -2.23029564551687    6.51362542101247
C         4.32699963793882    5.85103808339204   16.08172792116201
C        -0.93529885762182   -3.30616767293827    7.05900940285614
C         4.97331073442283    7.03800979742254   16.69349649336761
C        -1.60107093517845   -4.41554302255004    6.33345894189347
H         2.61700487014462    2.72732755847985    9.20770990735854
H         0.66377883856030   -0.75539261741254   14.20460799245554
H         3.57049411780069    4.45979742469904    7.48836895567346
H        -0.42575120012939   -2.54714290739338   15.77224730686001
H         4.81848061937854    6.73324784779079    7.42939980852757
H        -1.79695057934709   -4.74578814094192   15.64129814939806
H         5.62908122229417    8.09681183857813   10.99137105973373
H         6.47556651157501    8.03205757002962    9.43567427237313
H         4.92072987814928    8.84357032564780    9.55174737336664
H        -3.49860845477048   -5.75156867288457   13.43166170935596
H        -2.50164216637894   -5.86403097731809   11.97274638683245
H        -2.01601045343983   -6.69504837152088   13.45993336180681
H         2.44493140096623    2.43760393327425   13.61806811496476
H         0.99614492960299   -0.17648124908341    9.83442755771377
H         2.71367023168888    2.93996084337978   16.19169455351529
H         0.80651932714156   -0.47374315079436    7.23588660246043
H         3.69709128075048    4.71992467119114   17.80538035341438
H        -0.19030825777705   -2.07559421289249    5.45327051005065
H         5.71992606586208    6.72904032735033   17.42392973947888
H         5.45174289384998    7.65195662060391   15.93559893009689
H         4.23243516411627    7.64409413857180   17.21554844736655
H        -2.25008761793617   -4.97902165422905    6.99819265062991
H        -2.18807278567396   -4.02751177704025    5.50284281377254
H        -0.85538292336339   -5.09738309323919    5.92244834516161

