79
CSD_code = MEVSUB | q = 0 | S = 0 | Stoichiometry = C35H41NSiTi | MND = 10
Ti        2.65058707011692    5.62022345982844    7.99026184457931
Si        1.52599661115946    4.08322366183758   10.13198365319668
N         1.22398299400654    4.42296298236891    8.45650627776334
C         3.10718244124689    5.13259881089267   10.07374801117810
C         4.25506538183504    4.73242745356395    9.32409697184733
C         4.91342984133607    5.86780718588274    8.79991333230040
C         4.47135711361828    8.42306600315255    9.19622307550119
C         3.64360161263711    9.27366452889306    9.89345021884604
H         3.84350528504725   10.33621718630497    9.86543259380712
C         2.55656345481471    8.82962675210372   10.66910736821566
C         2.27200905606499    7.48653994679624   10.72986417349411
H         1.46248846268961    7.12995748355477   11.34990493945656
C         3.09160239608127    6.56880808668657   10.05205728580511
C         4.21416341561804    7.03289960032971    9.27180905010642
C         0.23231421885257    4.70932262576143   11.40818929543597
H        -0.23715156151327    5.63752284780257   11.09767056597650
H        -0.55093346766623    3.97049795549805   11.54750605095688
H         0.69242325671338    4.87426146848290   12.37735940556120
C         1.83980826954110    2.25740395557927   10.65024448543877
H         2.32281310291255    1.67733295931542    9.87127087926801
H         0.90288540607390    1.76775827716007   10.89673685815364
H         2.46665750838324    2.20976036095417   11.53508185465961
C         0.11204822991079    3.95481154914807    7.68909586188713
H         0.18645353524759    4.30740789380662    6.64784843168893
C        -0.20720828638571    2.43497225010247    7.69255606820928
H         0.03395191685562    1.89412577049387    6.77882607542544
H         0.24783290589529    1.93309142494459    8.54029931495485
C        -1.69046546519389    2.75740938602296    7.91128551906703
H        -2.28473194563241    2.64910142576163    7.00575698996644
H        -2.17878756558767    2.21435784978866    8.71774057645829
C        -1.32685155307092    4.21635467979342    8.21418344067381
H        -1.33143942214610    4.43977784657609    9.27621904398172
H        -1.89856230031535    4.97316958413889    7.67898792156243
C         4.71730412052607    3.30743018607753    9.21197665161252
H         4.72060569231842    2.84667503881405   10.19951223660319
H         5.72420370283168    3.24359664941233    8.80425933289178
H         4.05305294098547    2.72845963655841    8.56654279452989
C         6.26929151100524    5.84526920942687    8.15104596577674
H         7.04171838038283    6.04188136645588    8.89986247315910
H         6.36290292098070    6.59713079809064    7.37147150335412
H         6.47032912990335    4.87116648424404    7.70883627591738
C         5.63197224878287    8.98796474198044    8.42552020447310
H         5.64272998432587   10.07281707725656    8.50718150304922
H         5.56858447732577    8.72763443671598    7.36889398703063
H         6.57542302684441    8.60722314411890    8.81352240388192
C         1.76907134056656    9.82417342303658   11.46759954910691
H         0.79152758229331    9.42518900988556   11.72589244599270
H         1.63352363294061   10.74785708456869   10.91032353688945
H         2.29856501605395   10.06171534490753   12.39167767737984
C         3.08027370057444    4.81990491729639    6.07587803889070
H         2.05499113472349    4.64287215230721    5.72156866371569
C         3.54719340006176    6.18866975598547    5.97070377591699
H         4.56092116084109    6.37798259174880    5.62433716160028
C         2.80839754701310    7.26902649872303    6.41419115706004
H         3.29095693937256    8.24394353787000    6.40979178341242
C         1.51760616085752    7.14038214449254    7.04677921882130
H         0.80407225744544    6.46048914750585    6.55902079135662
C         3.94830286443767    3.67103026426574    5.86303706281997
C         3.39869498176358    2.38862607942412    6.03242708774595
H         2.34997564097163    2.30603072710308    6.29124549604165
C         4.16569755216815    1.25135186070506    5.89714556517538
H         3.71537503806404    0.27896349714129    6.03921605089128
C         5.51254270232521    1.34923160378727    5.57903388024641
H         6.11552426357717    0.46003758009978    5.47301619114672
C         6.07039450679857    2.60171167393862    5.38778955450041
H         7.11497801522833    2.68948997686880    5.12238568201586
C         5.30549199201272    3.74470974479132    5.52370909031569
H         5.77020263081522    4.70174377286096    5.33737930420590
C         0.85608185968245    8.25510328872243    7.71415860493400
C        -0.32163451120945    7.98578406553886    8.42797130262525
H        -0.67331908103723    6.96184405151380    8.47490134267385
C        -1.01780314280366    8.98691623675582    9.06988856209569
H        -1.92161304697873    8.75088177782667    9.61428976041823
C        -0.56831012899946   10.29772005383961    9.01279256526298
H        -1.11868641760174   11.08590055274274    9.50492287431961
C         0.59473327950210   10.58298572665340    8.31886924401870
H         0.95231383043821   11.60207650804314    8.26415419974738
C         1.30300933136994    9.58050573276410    7.68471244530726
H         2.19733791136502    9.84483759375185    7.13994756563361

