77
CSD_code = MEVYUJ | q = 0 | S = 0 | Stoichiometry = C36H28N10O2Zn | MND = 6
C         5.22714369821570    9.49357315197893   -1.15868360002731
H         4.87761605278617   10.15997641658524   -1.93664577167353
C         4.85469618269131    8.16114787615839   -1.10217936042639
H         4.19713356739114    7.74816650334683   -1.85040870709371
C         5.34204855648767    7.37387557205824   -0.06491055133710
H         5.06991624556088    6.33083795275006    0.00569740924053
C         6.17412226017021    7.94561638209693    0.87627957554330
H         6.57818550998019    7.39046283242814    1.70703077778258
C         6.49746692593565    9.29711470989831    0.74781674119748
C         7.33674707192435    9.99608253996197    1.68396310658732
C         8.57501327486254   10.61101818863918    3.25270993262634
C         9.40440912335344   10.60092206442649    4.43883349266039
C        10.01925515076976   11.76959302118163    4.88566352611028
H         9.86129415821261   12.68438395672911    4.33526697483936
C        10.81533535782778   11.75021846938628    6.01102831251712
H        11.27534150920623   12.66415142280569    6.35934477524877
C        11.01015533065688   10.56836397799379    6.72567429122764
C        10.38740968876415    9.40333356806484    6.27832954998971
H        10.54664507851078    8.47682741158298    6.81137848507518
C         9.59933815792827    9.41646691852594    5.14726762222881
H         9.12259587112260    8.51656528397489    4.79073604888885
C        11.85673093829873   10.55009717334299    7.92413252490787
C        13.04614486646847   11.27673145085576    7.98498373402849
H        13.37773131971396   11.85797051111049    7.13800670024778
C        13.80796235046773   11.21977729330144    9.13871515865711
H        14.73871334842829   11.76733407770957    9.21793413516817
C        12.34476711202514    9.82274029205783   10.15200089264542
H        12.10251513308413    9.25823661951593   11.04361486137394
C        11.50792322211387    9.80390881797226    9.05006387659544
H        10.59010158416693    9.23619507144435    9.06935643719559
N         6.03273239143469   10.04429034439735   -0.26241601765236
N         7.54271923354252   11.32042280850021    1.53402344877033
N         7.97066503755572    9.51518156456064    2.75139948662071
N         8.32566067029294   11.71195230926442    2.53088622434057
N        13.47275946059966   10.51169325872967   10.20455883005233
O         4.74862527947100   12.38537996888850    1.34150510777871
Zn        6.60646671228937   12.04957573766463   -0.00062583998041
H         4.96996627364342   12.79222576173049    2.18376847807551
H         4.05616550290980   12.90959001500400    0.93031296131625
C         7.98608063289813   14.60614340117263    1.15795256458905
H         8.33564370054109   13.94011687396488    1.93621918125341
C         8.35784906627201   15.93873403553923    1.10140970420824
H         9.01503028808764   16.35216812149976    1.84973305514542
C         7.87019581409676   16.72570373222786    0.06402564443585
H         8.14201758811023   17.76880915350956   -0.00673104068094
C         7.03850173871826   16.15347962191530   -0.87716770397707
H         6.63428617622440   16.70819872073583   -1.70813036138290
C         6.71570341230217   14.80183137447666   -0.74857017060433
C         5.87675615187301   14.10258509163705   -1.68472319374143
C         4.63878770850999   13.48738854175388   -3.25356994053123
C         3.80947577082462   13.49711788304925   -4.43975047284713
C         3.19497740765585   12.32813469289992   -4.88628430857281
H         3.35326395347138   11.41362557712772   -4.33551864201113
C         2.39888298719444   12.34688609173027   -6.01163332051838
H         1.93910452309705   11.43269898712491   -6.35958221039734
C         2.20366893515290   13.52847691917977   -6.72662692084837
C         2.82610865734539   14.69379412721076   -6.27962450959347
H         2.66662679611053   15.62009683246360   -6.81296112479755
C         3.61422379085227   14.68127204902892   -5.14856128137766
H         4.09067526662025   15.58150985551628   -4.79248972085596
C         1.35695605800441   13.54628864718510   -7.92498574199370
C         0.16775584407590   12.81929846007791   -7.98565295714117
H        -0.16353447804736   12.23790225231553   -7.13866719149627
C        -0.59431271264445   12.87609918383490   -9.13923903723181
H        -1.52490916080925   12.32825243973027   -9.21830613602079
C         0.86831231471753   14.27353825029038  -10.15277672249086
H         1.11022775346190   14.83816480532936  -11.04440558996208
C         1.70535363107131   14.29255790487566   -9.05100097378068
H         2.62302398125745   14.86050934861742   -9.07046271152434
N         7.18076114437207   14.05491528389318    0.26172370428473
N         5.67094390003740   12.77821288660648   -1.53476231568773
N         5.24297698695296   14.58330257925220   -2.75234954664792
N         4.88827978013862   12.38650188212309   -2.53164257404764
N        -0.25953702155022   13.58431403412916  -10.20512594744879
O         8.46851251942640   11.71469558658408   -1.33726453089010
H         8.25578841045287   11.29321577305029   -2.17416879406969
H         9.16432147425488   11.20445770172384   -0.91474179209754

