68
CSD_code = MEVZUI | q = 0 | S = 0 | Stoichiometry = C24H28BMoN7O7 | MND = 8
Mo       11.73997618074231    6.52048108959936    5.65099383346022
B        13.72845184096498    8.00857656466537    3.47697677759219
N        13.66581570801547    6.49646898443247    3.25103840664680
N        12.93479391228447    5.68975770181256    4.02409806290044
N        12.30215304823962    8.56272219339114    3.45339071561310
N        11.43322851269935    8.15503642033391    4.37792507999778
N        14.21545637349965    8.21234383882732    4.91592631156423
N        13.50427850204849    7.71222350044084    5.92619825885279
N         9.53135485668898    5.27496274404105    7.90412231689240
O        10.59207568914883    8.12316731548154    8.00046140083028
O        13.12880232005622    5.04314783235225    7.96567904798556
O         8.70619871629524    6.26024722214702    4.50921671255777
O         8.48706256088285    6.65646189518027    9.36615244283455
O        10.15295032041439    5.28908909762561   10.05661708620281
O         9.27457898229324    3.74023481407080   12.31946742747771
O        10.54930221948932    5.12652194689758   13.52294440495706
C        14.39547261128185    5.77536411090615    2.38658272496741
C        14.12895817381431    4.44263411800043    2.60753366729956
C        13.20689891550706    4.44584063730090    3.65223126924084
C        11.75710939537507    9.53264902388483    2.70843351571051
C        10.47504419887862    9.75682381330424    3.16935220690215
C        10.32326266817166    8.86848331300226    4.23111850115674
C        15.29410131317551    8.85054835556365    5.38807839310761
C        15.27955736991051    8.75501384743714    6.76437178897216
C        14.12764893830296    8.02613996449471    7.05266236337971
C        10.35032997641087    4.11453027592212    7.66511532355911
C        11.27088055696893    4.35357397685773    6.46153354694774
C        10.51099916801406    4.79810486493244    5.25193998290798
C         9.52879662803172    5.76787722073796    5.51042184667875
C         8.71678654136760    5.70143400324580    6.79564737705532
C         9.07368145470087    6.01457500111916    3.17392348339729
C         9.31307571909505    5.81137234272997    9.13156110898806
C        10.07616355026529    5.84109119246656   11.35033937828840
C         9.89332622178737    4.75639674161421   12.41704387283990
C        11.22124610287039    6.36797405619237   13.33410941588773
C        11.35412043119490    6.56644138191625   11.81266528341256
C        12.59162911249326    5.83496176382657   11.29298277567156
C        11.37442926000913    8.03398755950586   11.40686724449364
C        10.93027920254366    7.48325761774474    7.10990732820348
C        12.46784934231662    5.35290746406989    7.03547647229685
H        15.04728151143208    6.24684327781341    1.68004096984879
H        14.53718458852656    3.59468265806823    2.09811352124888
H        12.75909258672178    3.59462976009468    4.12900244557475
H        12.30164952644627    9.99719817809176    1.91150049740961
H         9.76008716751648   10.46160529564754    2.79853325246924
H         9.47573003869666    8.71849668863843    4.87390775145815
H        15.99361200889614    9.32495618804479    4.72984597654476
H        15.99366950515706    9.15235757404717    7.45529527159458
H        13.73949248622024    7.71981524293585    8.00533506298231
H         9.70349773157312    3.24967531081952    7.44912071125066
H        10.94022644645603    3.90217212714258    8.55884502497626
H        11.83043608918899    3.43283448024685    6.25146750548714
H        10.51720874705561    4.17776517984876    4.35770296180026
H         8.27505578855774    6.67016880022473    7.03843510521518
H         7.89225807641864    4.98826830002112    6.62714947934558
H         8.46736895428248    6.68522673702624    2.56643208617371
H         8.85943555648691    4.97958966456139    2.88286466443654
H        10.13644369353043    6.22608721361748    2.99575889510325
H         9.20616449159222    6.51644250129634   11.39009082784003
H        12.18304345777918    6.30332883612655   13.84521424783840
H        10.62123745486494    7.16308696788058   13.79139070357023
H        12.61234055476815    5.83864604736823   10.20638582604565
H        12.58891177162658    4.79904237300463   11.62579382742141
H        13.49326240841125    6.31959450595536   11.66033512822767
H        11.35854522403268    8.11657072458893   10.32325119361864
H        12.27437206989863    8.51697907498612   11.78066952231272
H        10.50662943225207    8.55961367822252   11.79907675340152
H        14.42473603557155    8.53959680560350    2.68413362890802

