99
CSD_code = MEVZEV | q = 0 | S = 0 | Stoichiometry = C37H54Cl3IrN2P2 | MND = 6
Ir        0.41626250104167    0.79779860062906    3.73888673936389
P        -1.52787191065944    1.30201945337258    4.84741704901511
P         2.18607987358039   -0.06501032915169    2.56170835544328
Cl        1.43635352377778    2.88735279118963    4.15990979217309
Cl        1.06833857124677   -0.14241361860514    5.82103804898499
Cl       -0.38830820375756    1.41736150857790    1.59060001446368
N        -1.55077350989818   -1.33655971612173    4.05925577942156
N         0.04485788371746   -1.79629548791471    2.45146057674970
C        -0.45431522456606   -0.96796379099229    3.38041748309742
C        -0.59330556661373   -2.98120842826458    2.06702277988611
C        -0.20138507657439   -3.73826452004819    0.98350146347058
C        -0.84810738609782   -4.94812023394607    0.70312576365169
C        -1.86178998597027   -5.41175346173948    1.49331071010445
C        -2.30864486145179   -4.65267664484255    2.59342287809533
C        -3.35221631027276   -5.07803006416958    3.43967713564990
C        -3.73826365099184   -4.30528102110677    4.49830377306861
C        -3.14572585439965   -3.06104280598452    4.74634822170519
C        -2.14277785797933   -2.59750667774885    3.92167188502169
C        -1.68236267591772   -3.41096609949499    2.86022233137405
C        -2.12148391780875   -0.45086505923266    5.05768935356684
C         1.24741947054475   -1.43747915337534    1.72234961852328
C         3.45658495630590   -0.96017694876460    3.56920523526579
C         4.19349795352435    0.02356892917588    4.48101287491707
C         4.97895675136818   -0.75408322886635    5.53177583165711
C         5.96676983555968   -1.70648348528348    4.86272822879045
C         5.24803272957992   -2.64538626761763    3.89681033833822
C         4.47093716120783   -1.84480983448651    2.85133594623583
C         2.90113084440082    0.82940619625103    1.10847039355376
C         3.76481673471474    2.00811720099426    1.55705298639754
C         4.06955072381716    2.89530817261117    0.35366555139112
C         4.77612217173662    2.09202622619513   -0.73543429403634
C         3.93908663618903    0.88264825003779   -1.14420089791328
C         3.64794253606387   -0.00330118435615    0.06760731303054
C        -1.49795768607568    1.90047481369343    6.59798691448249
C        -2.73464046608415    1.64540162641306    7.45842861094989
C        -2.39654037042641    2.00067683302971    8.90697601746954
C        -1.96773956281720    3.46169080492597    9.01660963135897
C        -0.77500159232009    3.74531899380314    8.10697946500817
C        -1.10677106243221    3.37675230567615    6.66411641698756
C        -2.86390999083088    2.08626030129823    3.83213756310513
C        -4.26856083887457    2.15947587405806    4.42277935065019
C        -5.23529339181735    2.63246708230739    3.33698934576241
C        -4.81836248485132    4.00413361509095    2.81216569998538
C        -3.38531500981075    3.97183791908159    2.28715430888871
C        -2.43118445123189    3.47965906999884    3.37041421579947
H         0.59216373011545   -3.42275200452126    0.32807482288666
H        -0.52044676614687   -5.52091604512675   -0.15128995302132
H        -2.33761898853821   -6.35755112019287    1.28519624545854
H        -3.83189127623268   -6.02382763581466    3.24056034489801
H        -4.52289686245643   -4.64247184142871    5.15871603207509
H        -3.49002715083248   -2.49491300451086    5.59482363688606
H        -1.80736954245260   -0.78730696208157    6.05335893465546
H        -3.21205945011499   -0.49026438052005    4.97955559818412
H         1.87900117747193   -2.32651802772640    1.63064752495257
H         0.96495064419484   -1.07818091113287    0.72517597097805
H         2.83065750893345   -1.59830338911187    4.21305306332187
H         4.87971031800827    0.63668123244791    3.89490824445220
H         3.48057742717523    0.69239352678748    4.96584133002608
H         5.51456005622055   -0.05924954678549    6.18061900085457
H         4.28076025563212   -1.31965472343464    6.15188838428762
H         6.49401393244638   -2.29018519193954    5.61989977443572
H         6.71158388300892   -1.12609240045022    4.31225821423789
H         5.97278799344528   -3.29452790729986    3.39958803664724
H         4.55624692143340   -3.28061607847141    4.45485672178168
H         5.17576759888129   -1.22550244246529    2.29493747304820
H         3.98754451393024   -2.52734579058119    2.14750563308810
H         1.99939661888008    1.24306714400680    0.63355627254968
H         4.70420940324803    1.64486874550199    1.97974558356083
H         3.24059820498851    2.58096456164683    2.32537015463731
H         4.69522798409613    3.73420947846348    0.66296192549736
H         3.13533499908364    3.30145634425185   -0.03848810198729
H         5.74542460393512    1.75047558918532   -0.36300880521973
H         4.95930513056070    2.72457620047634   -1.60618849051697
H         4.46790967364041    0.30316425221026   -1.90466283725140
H         2.99623177005827    1.22392617233524   -1.57682387853752
H         4.59427819546107   -0.36190838980890    0.47278392859582
H         3.06275555997380   -0.87095998882411   -0.24466984723353
H        -0.66490297260809    1.31882724949651    7.01906480330610
H        -3.56615109798316    2.26933310120202    7.13034123250213
H        -3.05177243655149    0.60188375749856    7.40285141007396
H        -3.26650329608093    1.81920643769905    9.54258153242032
H        -1.58540890977242    1.35799445095328    9.25567309506157
H        -1.71027284079290    3.69306737504098   10.05201237011352
H        -2.80347849287440    4.10549478057458    8.73024414133935
H        -0.50457760900607    4.80098308920312    8.16534978386806
H         0.08549723145697    3.16080225825803    8.43752412366297
H        -1.93522614135731    3.99930677422400    6.31847980038157
H        -0.24392052209205    3.56088151985851    6.01986770066546
H        -2.88991771809285    1.43837968889837    2.94152529263272
H        -4.28776039824697    2.87984421416897    5.24183090387883
H        -4.59507958693296    1.19155403332918    4.81211207578051
H        -6.24891812434736    2.68058923584466    3.74213299928351
H        -5.23675868640331    1.91360063734664    2.51431695183324
H        -4.89024704747863    4.73550101320167    3.62117577414383
H        -5.49997221846835    4.31805025188194    2.01915142816864
H        -3.08736622614230    4.96904675942725    1.95945172337165
H        -3.32160183669244    3.30421627538497    1.42560826223726
H        -2.44545507008323    4.17540764376643    4.21046599886934
H        -1.41172602536809    3.44661548137480    2.98338085726548

