53
CSD_code = MEWBIB | q = 0 | S = 0 | Stoichiometry = C15H32NiO3P2 | MND = 4
C        -2.17976109210300    6.69362216975639    9.57972014029915
H        -2.99900199015200    6.87502507637883   10.27944988612181
H        -1.95437964865598    7.63389687907759    9.07121809403205
C        -2.59283535648032    5.60708774291073    8.58585977360659
H        -1.92022443876503    5.61151239909916    7.72686197260464
H        -3.60727550179720    5.77806173991270    8.21726350682806
C        -2.32900309824556    2.76476303081179    7.96003566756688
H        -3.08051493710490    3.00973904902855    7.19942908538099
C        -0.91712143167857    2.94151421257407    7.39973943123944
H        -0.19572813590574    2.84577238994119    8.21937553946008
H        -0.78089675257260    3.91018817294436    6.92230966482334
H        -0.69848480183661    2.16949946609555    6.66484984176077
C        -2.49484926585608    1.33205637689055    8.46126518708224
H        -2.21039126368494    0.62742536248027    7.68150965256123
H        -3.52130098875135    1.11782411797243    8.74711316108584
H        -1.84639599183166    1.17394410741474    9.32285571084154
C        -4.14426400947864    3.77516821588434   10.17608261496163
H        -4.29929632581754    4.75726689439049   10.64614550613803
C        -5.28242342861584    3.52476543279551    9.19345803185598
H        -5.19991863291600    2.54194437071126    8.73856764809323
H        -5.29776338167890    4.26972813525622    8.40023720102434
H        -6.23491473690690    3.57214275575801    9.71895837633260
C        -4.08871592950241    2.72649341936755   11.28515269988097
H        -4.93473477384709    2.83474588491359   11.96150277738280
H        -3.16429039339418    2.83591328344026   11.85672190588611
H        -4.10375691175801    1.72104830962387   10.87501636187695
C         0.73442751313611    7.00917921713380    9.84662606383778
H         0.48203476258405    8.06426796309580    9.68323881374965
C         1.03555130335646    6.33115799688825    8.51158561610188
H         1.95350882972762    6.72395808138756    8.07834018959066
H         0.22894237871466    6.48706896763671    7.79694850226578
H         1.16231844113270    5.25819388550351    8.67463253091899
C         1.92583066203259    6.87614708115715   10.79129542660399
H         2.01546369249132    5.84233290313488   11.12549318015254
H         1.81722724094986    7.51798272600984   11.66248897929651
H         2.84529259755085    7.15503321190987   10.27973929734383
C        -0.97244316382779    6.87062923596918   12.26153434687340
H        -0.01781159925443    6.70615675672703   12.77492539142344
C        -2.02935837435585    6.02898928226982   12.97638453855521
H        -2.06846386281475    6.27440202931017   14.03558300359064
H        -1.77178486125148    4.96660390531243   12.87839056434715
H        -3.02025961659528    6.18904020542878   12.55294241694841
C        -1.30613105007157    8.35736587456778   12.25790059374649
H        -2.25768414286318    8.54828324240178   11.76638943225227
H        -0.53410879670866    8.93151554291499   11.75091590238747
H        -1.37911786300613    8.71949011093015   13.28196481790115
C         0.58283419552475    2.47514570564595   11.68352460607010
Ni       -0.73063473886321    3.98062695187805   10.67012240417563
O         0.75669419868321    3.78703614687593   11.68302416490439
O        -0.50520135873485    2.20644771036485   10.98275975722667
O         1.29262407683616    1.67025660602373   12.22569852765540
P        -0.71760955567558    6.12153361003089   10.58498629029094
P        -2.46039768936210    3.93470605406120    9.39446520306199

