72
CSD_code = MEWBUL | q = 0 | S = 0 | Stoichiometry = C26H28BMoN7O9 | MND = 8
Mo        0.83517148087187  -11.73995024548865   -6.48738224436192
O         2.15023536466763  -14.03454968821647  -10.75686942228924
O         0.19376029964727  -14.99988726267714  -10.18487561921385
O         3.98600098237659  -12.48719194200547   -6.53428991599646
O         1.07536661752936  -18.10396762699759   -7.98553781131619
O         2.57683630588730  -17.04726627420652   -9.27154047044310
O         4.04970670715597  -17.78063090609655   -6.36489447922267
O         6.17613038238711  -17.09598934565442   -6.59652280549007
O         1.22718673718413  -11.43565856605501   -9.52224395218477
O        -1.61757980514480  -13.45480674171820   -7.22162178697818
N         1.85454571445429   -9.92408845446361   -6.24965351160686
N         1.50323768788391   -8.96946237153734   -5.38809097652956
N         0.32263187655601  -11.53201956799164   -4.37679322438879
N         0.09579231869479  -10.32368330095797   -3.85543566154327
N        -0.71376758242251  -10.26801081501097   -6.67607487778167
N        -0.87304222413669   -9.24717017982176   -5.83368247382598
N         1.51339935948738  -14.16008491159409   -8.57489531768757
B         0.13798911418793   -9.04838591355310   -4.70014461592055
C         3.01082033299685   -9.56743370008624   -6.79708485014417
C         3.42559856574654   -8.34993440667089   -6.26329841287603
C         2.42768543099440   -8.00113104260647   -5.37508354344129
C         0.08605807636192  -12.41811314110559   -3.41818611468209
C        -0.29613069502380  -11.77201294612779   -2.24442974803366
C        -0.27842182166702  -10.43463533158805   -2.57218943927189
C        -1.70299299899802  -10.22272524056394   -7.55714235964838
C        -2.52966885538292   -9.13656360449883   -7.27813402182493
C        -1.96072315481989   -8.54250273559791   -6.17012683611647
C         2.83719564069680  -13.89997070523479   -8.05775649462550
C         2.73587992161353  -13.01693593660995   -6.80701557524079
C         1.86692576827801  -13.46637413198076   -5.78502207812122
C         0.61572829936396  -14.08754168403592   -6.33720910883999
C         0.89503864399373  -14.97825281781544   -7.55702936559843
C         2.00886257839177  -16.01304821975220   -7.22992591255341
C         3.26533135448855  -15.23754182969690   -7.50783983683755
C         1.36202931576654  -14.38750150915055   -9.92101428188456
C        -0.10839581389621  -15.14793899429745  -11.56422143975299
C         4.28950808050938  -12.18933244662009   -5.19278401952764
C         1.83830043985450  -17.19918723803302   -8.17356495671092
C         2.45293394488005  -18.06233863524472  -10.25906117987687
C         4.52031430117676  -15.62500264359209   -7.27321923573056
C         4.84535181336129  -16.93368159465852   -6.70152027440130
C         6.61012824204889  -18.34133510479504   -6.07443044586409
C         1.11949374353568  -11.62117920116378   -8.39773374222996
C        -0.57016331878882  -13.05709129768884   -6.84779482491433
H         3.49233941871430  -10.18482593391493   -7.53266943996628
H         4.31521816170856   -7.80249081871928   -6.49620178847567
H         2.32338957449088   -7.13828325765435   -4.74899938475023
H         0.18267470855266  -13.47485948923317   -3.57938985309346
H        -0.54846900627157  -12.21776181163709   -1.30488268273717
H        -0.50451543468319   -9.57044480446124   -1.98191830275766
H        -1.78556382355053  -10.95808842592762   -8.33478384420165
H        -3.40985378885337   -8.83091269381592   -7.80443173844540
H        -2.25971352807437   -7.67819612499115   -5.61218497684128
H         3.49491884097418  -13.47209184115652   -8.81375183729427
H         2.19985777905084  -13.73624068472154   -4.78439181532446
H         0.09888570066572  -14.67538380063167   -5.56828913055901
H        -0.02886041841726  -15.43654691345011   -7.91867229459813
H         1.95184538533380  -16.40059314854988   -6.21113020494492
H        -1.01806587946377  -15.74130176286282  -11.60894478021218
H         0.71032107785351  -15.65220913971181  -12.08172924218084
H        -0.26630601545149  -14.17005823198108  -12.02288714373832
H         5.20207193223935  -11.59551225349400   -5.21598659573594
H         4.47030569275258  -13.10132745950587   -4.61274542352656
H         3.49100433341129  -11.60677962839351   -4.71409880177509
H         2.99689178294935  -17.70362456776458  -11.12910111995650
H         1.40079151971397  -18.22998926616850  -10.49810422515400
H         2.88507669066631  -18.99518780260440   -9.89237973284340
H         5.35463613462799  -14.98654397714115   -7.51576208504191
H         7.69575802681349  -18.33209168990874   -6.12625821074323
H         6.20299534013709  -19.16426751382992   -6.66565210287812
H         6.27675947410407  -18.45749110303360   -5.04072702945721
H        -0.08908285177234   -8.08718560137611   -4.05245894620381

