75
CSD_code = MEWCAS | q = 0 | S = 0 | Stoichiometry = C27H32BMoN7O7 | MND = 8
Mo        7.55451506232499    3.99574388374080   10.17391907932762
N         5.42586750758133    5.12389078234219    8.26051058064544
N         6.74677850073906    5.00807307686311    8.41719941272462
N         4.74478930389422    5.09482604664771   10.64776651399229
N         5.92936891146594    4.83490380650554   11.19981391229191
N         4.73214489605725    3.03766759179529    9.34914550913578
N         5.94174685299334    2.64781325693862    9.74985665378190
N        10.51241736510068    3.17086623185572   11.30551022428483
O        10.77976121222300    2.16232598449168   13.29053330517948
O         8.07046909275837    2.35702698937151   12.72021374985067
O        11.14308350327173    0.99445347676411   11.39569256731313
O         8.89540542927511    1.76046413105503    8.53414175588844
O         8.89133654491613    6.31307322211298   12.02070066608622
O        14.52921521179673    1.81167818276486    8.92212163660694
O        13.58204531010552    2.77647712693520   10.71464577688629
C         7.95654604550907    2.97229024420247   11.75852816371969
C         9.22411261944943    5.21698494031544   11.23489877959185
C         9.21894034821852    5.27982986012524    9.82471086402141
C         8.64798328020275    2.76452328426400    9.10342653058825
C         9.71178744893257    4.00500004851766    9.19446123319531
C        10.92772007513376    3.44400850683645    9.95047112115525
C        12.00651124594598    4.54738132907265   10.11392045948171
C        11.69961386833895    5.17407548199436   11.49687409064764
C        10.38108296866133    4.47402166409951   11.90588580918942
C        12.81969563373010    4.90083222524866   12.49342302854530
C        14.14311248798254    5.47006178827130   11.98512750446340
C        14.43789422223702    5.04323833362658   10.53613888304945
C        13.43923530581726    4.00985647331892   10.00839246070717
C        14.13363544817998    1.74364528142743   10.05588529108343
C        14.16925580040296    0.52207190154516   10.92341766808431
C        10.85199344193829    2.02467637994484   11.95173847079750
C        10.94986084788556    0.96276247839289   14.02769655115188
C         8.24817656904469    7.39324421178531   11.38997117148316
C         5.14685701173722    5.70224024965167    7.08271871608950
C         6.33688647127995    5.97484204201805    6.44594775592187
C         7.31137415696007    5.51362047775185    7.32862990165417
C         3.96707116349557    5.75032560048066   11.51852366221440
C         4.68553874097941    5.92925498362500   12.68389470513239
C         5.91479255639090    5.32416924053849   12.43423078694185
C         3.96720212525633    1.96722048976543    9.09727942213411
C         4.71908652814506    0.83726880282758    9.34487850518324
C         5.95946753600952    1.32330287262262    9.75442209875587
B         4.42615027201095    4.53432360175464    9.25833675053927
H         9.27493830355238    6.21080303814195    9.26261198370349
H         9.97645478624449    4.16793511375150    8.14162400925933
H        11.29658616874306    2.52974035420352    9.47642226070974
H        11.90001372483484    5.29436165770248    9.32276395085025
H        11.54901382136720    6.25362638168385   11.41640015524413
H        10.23582952822436    4.41922585735077   12.98408896422310
H        12.57120188512161    5.35488489179526   13.45431564755920
H        12.91409786078967    3.82565723343938   12.63980051577319
H        14.94466399197609    5.13536993421670   12.64403468203998
H        14.10793220481721    6.55985030275122   12.04086750568122
H        14.39172837924566    5.90599480846944    9.87005958153992
H        15.44054071814323    4.62134880366664   10.45787403828324
H        13.66561742987530    3.79994832746639    8.95343197039526
H        14.72901471825828   -0.26557583534232   10.42982059969313
H        13.13922457993573    0.20439773915983   11.08475771424048
H        14.61092517057247    0.76117789260268   11.88717145267660
H        10.83822758315511    1.23718315245527   15.07362007960459
H        11.93959863692044    0.53758762289276   13.84577492682559
H        10.19150610765338    0.23170616219532   13.74191125952790
H         7.83945267361076    8.01173152460662   12.18806453101850
H         7.43196013869276    7.05675196705121   10.73731862577504
H         8.95381516727478    7.99191349105416   10.80168748104508
H         4.13672363520016    5.88119388113081    6.77611979651219
H         6.48379312618858    6.43278624757555    5.48988888085790
H         8.37586604581131    5.53264799978455    7.19248597867792
H         2.96888336763492    6.04412250756528   11.26421357664373
H         4.36597069388468    6.41673175071861   13.58156099819452
H         6.76907219956186    5.23066145674439   13.07920188088663
H         2.95475622875862    2.07194388218073    8.76287433624982
H         4.41708026491731   -0.18441510415832    9.24374858959474
H         6.84253763903055    0.78229687949628   10.03677475832033
H         3.31004429562462    4.75265349342578    8.93830753878486

