61
CSD_code = MEWLOS | q = 0 | S = 0 | Stoichiometry = C24H22N8NiO4S2 | MND = 6
Ni        0.00035683236399   -0.00018499748510    8.75618355916233
S        -1.05239616677964   -2.19481997296705    7.23450397067672
N        -1.77995668047163   -0.33167664682280    8.70894619211693
C        -2.59553132995058    0.49594530058532    9.32481127428818
C        -1.98604017166945    1.46872715177219   10.18049003076819
C        -0.83259093254683   -3.58355207111581    8.35774828822682
N        -0.63923118586427    1.39747238499440   10.32526346817355
N        -2.09903081420424    3.30994247579316   11.69766239459872
C        -4.08354178494060    0.40762327957289    9.15526957096485
H        -4.47994812688222    1.34299636715280    8.76428912559421
H        -4.30027536178024   -0.38981101534825    8.45013572399955
H        -4.57239174728951    0.19424088938691   10.10509758182430
C        -0.45454130590614   -5.72766867882733   10.04015330266497
H        -0.30568543409214   -6.56915831569532   10.70003677021652
C        -1.90998459141769   -4.09402212891895    9.05461698133203
H        -2.88023533490642   -3.64171928195423    8.92181641172827
C        -2.69148569283577    2.46585863162856   10.88768019489150
H        -3.76165714833398    2.57295125612493   10.78637048555142
C        -1.71753304072723   -5.17354622139773    9.90221856208547
H        -2.55156225262459   -5.58412310196480   10.45128741995451
C         0.61942328063233   -5.21071943053832    9.33253846658175
H         1.60076927807965   -5.64606553987707    9.44370506156320
C        -0.78137013940016    3.20388425039649   11.84544864043990
H        -0.31530171923616    3.89547588323017   12.53058163446489
C         0.42894215652973   -4.13235286781220    8.48415703574914
H         1.24079515339711   -3.70091808887317    7.91952468492583
N        -2.21870732641227   -1.27479127218146    7.94315571967950
O        -1.54879366083090   -2.72120492552173    6.00348115791583
O         0.22683151681293   -1.49355368178006    7.20314329308664
C        -0.05193105936939    2.25192237755210   11.14968647018537
H         1.02040383601644    2.16829021180070   11.26110715470872
S         1.05253320814566    2.19486788738379    7.23489741789097
N         1.78061846830748    0.33172480091136    8.70910261087698
C         2.59650257013617   -0.49586639343277    9.32458765182474
C         1.98739876227489   -1.46882326183746   10.18038046391140
C         0.83172150074560    3.58339415902344    8.35820264826175
N         0.64048784050097   -1.39846266845405   10.32465228599484
N         2.10109921778855   -3.30940250478607   11.69828913466784
C         4.08441508230285   -0.40679677143826    9.15478416475174
H         4.48260472257557   -1.34534422200040    8.77300914588056
H         4.30006532022943    0.38469998263669    8.44233609400323
H         4.57252903642778   -0.18339448644350   10.10295381700553
C         0.45171798363902    5.72741879982039   10.04028460173235
H         0.30208948792440    6.56886021413374   10.70005600552011
C         1.90850663458984    4.09445907085769    9.05555945763837
H         2.87907037935826    3.64267955166869    8.92326294424366
C         2.69330475761296   -2.46498056627749   10.88847355429543
H         3.76368102901480   -2.57090951088050   10.78820385742502
C         1.71506110737856    5.17394584462391    9.90298670051689
H         2.54860527447440    5.58500835399248   10.45243007090350
C        -0.62163978944249    5.20985152304456    9.33220141110027
H        -1.60327310984823    5.64467032428153    9.44288797389833
C         0.78326344464501   -3.20446957388087   11.84525786725602
H         0.31737865594384   -3.89640143400683   12.53017548604832
C        -0.43016378331317    4.13154683939749    8.48397304067480
H        -1.24150885847372    3.69962457482107    7.91898135255387
N         2.21911675969977    1.27531114089264    7.94371586680038
O         1.54890292846065    2.72163484691219    6.00403117657492
O        -0.22637376303495    1.49301582648082    7.20320964178089
C         0.05345554207865   -2.25311474036533   11.14904392912294
H        -1.01896945550440   -2.17018982798763   11.26005899872868

