50
CSD_code = MEWMEJ | q = 1 | S = 0 | Stoichiometry = C22H22Cl3N2Ru(1+) | MND = 9
C        11.24979985751924   11.99587988553193   -1.35369315955282
H        10.56509421021740   11.31563719165310   -1.84427872691830
C        11.76911294111182   13.08428262933986   -2.02855464651638
H        11.50560904854197   13.24995580897979   -3.06011957266629
C        12.61942247114181   13.96043131310799   -1.35735715767894
H        13.03009612700710   14.81925636594046   -1.86327879027585
C        12.91245990321242   13.71611692252093   -0.03201065714710
H        13.54756231457365   14.37473038386117    0.53780594520527
C        12.35641832463260   12.59457401602701    0.59033740811868
C        12.53927776174827   12.20815169435470    1.95463463557168
H        13.15995130272422   12.76299103977840    2.64684799770709
C        11.93913283785724   10.61864153782555    3.59332273951709
C        13.13883626832539   10.16025321941927    4.14982882349480
C        13.14214085520856    9.60374694222650    5.42055303572019
H        14.06911509029802    9.24931736277513    5.84243293895215
C        11.96742863166138    9.50159696723644    6.14281750380490
H        11.97602915930165    9.07106241682888    7.13105688176434
C        10.77275612458452    9.95206584777799    5.59013156533072
C        10.75542680504835   10.50903030199566    4.32111318631982
H         9.83838038645989   10.88779594812209    3.88887787340548
C         9.09027745739954    8.61135275967882    1.52291025610180
C        10.31230329785036    8.21566420880389    2.07654402847241
H        10.35920725781127    7.91504907265890    3.11704330731524
C        11.48607463512851    8.16565260783464    1.28650352097290
H        12.40751781025885    7.81922335271228    1.74055244287242
C        11.44145663614838    8.41943713421052   -0.10258937066478
C        10.17747218869918    8.73148404563605   -0.67755582976222
H        10.09527887981465    8.81640629428168   -1.75650184415524
C         9.04203852964049    8.87331677298176    0.11687283961129
H         8.08225792110868    9.09349310691968   -0.33960042534934
C        12.65872664880531    8.23811121577048   -0.97659972942551
H        12.44650437531042    8.68066397690368   -1.95662204288608
C        13.88609038821531    8.93981291680991   -0.39065466773983
H        13.65047244537795    9.97330703890890   -0.12803470786830
H        14.69004553408715    8.94614381677307   -1.12139053693380
H        14.24776383913555    8.42972997584740    0.49814929465210
C        12.92351646881117    6.74100091591776   -1.17229816933841
H        13.14435234732468    6.26015377106282   -0.22247203382901
H        13.77344170572247    6.60193974756050   -1.83420229400491
H        12.05908269609557    6.25160411853538   -1.61477664312906
C         7.84187365423032    8.69454105284280    2.33670560211294
H         8.02961787443732    8.43968590674782    3.37652436588441
H         7.08612023445019    8.01982376608012    1.93544932636974
H         7.43677658002298    9.70668553888741    2.29124862795474
N        11.54121145087820   11.73761649214075   -0.08184441215894
N        11.87291841133236   11.14792097181975    2.30115590726617
Cl        9.11635299992243   11.90193540903234    1.47651807161226
Cl       14.60036831620041   10.23624866009954    3.22795170359446
Cl        9.30224901905990    9.81195809519047    6.47111420333661
Ru       10.72107997554403   10.29091946204774    1.00333138496080

