67
CSD_code = MEWSAL | q = 0 | S = 0 | Stoichiometry = C16H26N8O14S2Zn | MND = 6
N        11.12304163574597    2.70553720500694    2.80023974249637
Zn        8.33205120258039    4.87928402817004    5.01474544527383
C        10.21457756377546    3.68195883682753    2.96765981652527
N         9.53478511416086    3.50159308913726    4.10065497717799
C        10.00531117792687    2.38403308939871    4.68026395705665
H         9.63297080318814    2.01670792602423    5.61527853577832
C        10.99699557825439    1.85576167082678    3.88365803209715
C        12.05345706233146    2.56145484976534    1.70269063347867
H        13.00796546485085    2.20792675475933    2.09734443414810
H        12.22500115314180    3.53418261911860    1.24134254434951
C        11.55137226696565    1.58065108560410    0.65907135569517
H        10.67545109643159    1.94376523326003    0.12808300968687
H        11.35596217665716    0.59664218551119    1.07551400493054
S        12.90071881056010    1.36215751986412   -0.57861451683319
O        13.66359166418920    2.58074745644342   -0.56935986210773
O        12.30051483327412    0.95857167308840   -1.81695627326787
C        13.90296456029227   -0.00422084587862    0.08296413165025
H        14.01679313168043    0.16128946180159    1.15031048052893
H        13.32898118661129   -0.90735042979804   -0.10057068493330
C        15.22551978319283   -0.00307190782742   -0.65052013364294
H        15.87917692779810   -0.78680328986296   -0.27443700535817
H        15.71257704334052    0.96040824000908   -0.52121214852088
H        15.05712751996870   -0.16131834770710   -1.71305384861825
N        11.73207288701079    0.67474505296000    4.10838908091348
O        12.52177454055921    0.30820744342605    3.25476144586614
O        11.51131806025390    0.09069952820077    5.14550280971262
C         9.98697253846644    4.81088551228070    2.05326480457821
H         8.91899458676905    5.01604886480330    2.00988674130893
H        10.37097939052308    4.62094965395255    1.05658036654448
H        10.45608425668764    5.70704796868410    2.46220788930540
N         5.25566990648703    2.88009556285581    6.99213321944315
C         6.29624753241183    3.72969160184141    6.93746558378322
N         6.97532952213896    3.56495641511864    5.80158617072225
C         6.37172352551509    2.58400350765293    5.10824876901006
H         6.71578076236318    2.25898416020475    4.14715053111618
C         5.29433753807730    2.12652989570583    5.83381613782689
C         4.29097862699321    2.76014576471581    8.06191167166645
H         3.30432470595559    2.61256097220242    7.61781760440817
H         4.28570018049545    3.68470216453007    8.64318172844903
C         4.62180002808718    1.60665147667061    8.98952712852632
H         5.65893423445699    1.63379721600296    9.31659199835585
H         4.38844928181645    0.63516825782693    8.56726998404578
S         3.63602946431398    1.82715167155746   10.52132613744125
O         3.79625404371322    3.20882513216195   10.89352316388475
O         4.05154154795186    0.82185777656019   11.45407066554319
C         1.90020398801994    1.54077064333045   10.06016720802997
H         1.36376267206382    1.59644141761009   11.00456094700716
H         1.60007318072323    2.36919268739818    9.42650062419929
C         1.75074059149357    0.18660390150579    9.40620896410144
H         0.70340323490068   -0.10456929750710    9.37041899962237
H         2.29176569200510   -0.55282213049171    9.99246736554923
H         2.13285606356592    0.18825430646556    8.38819121698901
N         4.40817637927971    1.08716887317113    5.48757840431652
O         3.54082693120246    0.77241892496728    6.28411638291979
O         4.58307162738315    0.56478559061935    4.40957185300556
C         6.65041627987114    4.71860461189945    7.96644501350204
H         7.73458429134924    4.79834944994889    8.01634725365309
H         6.24959481021365    4.46489602362736    8.94300354913816
H         6.28244336980006    5.70085992827952    7.66589101480840
N         6.66659301413318    6.25199523701425    4.12022340491349
O         7.21559869069780    5.35027602578320    3.45257726350630
O         7.00986869568374    6.35245193771767    5.30991144149381
O         5.83238435304300    6.95622176097854    3.64381645150180
N        10.11172095003934    6.00261315262737    6.01600336945935
O         9.47619301177191    5.10222107208763    6.60384483582415
O         9.79007394554064    6.23300926543835    4.83790607968804
O        11.00094331362684    6.58594291216680    6.55133809713666

