48
CSD_code = MEWWIX | q = 1 | S = 0 | Stoichiometry = C20H20N4O3Re(1+) | MND = 6
C         6.85267583044633    0.67268562638813    5.68408274505875
H         6.00402578022462    0.06806427837775    5.39168864871091
C         7.21106532459149    0.77780823763573    7.01632294986334
H         6.64189313118993    0.26037422748783    7.77077988955384
C         8.31026012410063    1.55500727137562    7.34774452449281
H         8.62149139735559    1.66762344677151    8.37418088597695
C         9.01076241515405    2.17899291281390    6.33120710382093
H         9.87176847099743    2.78059967523991    6.56857969293616
C         8.59665262032382    2.01971664702290    5.00994124502501
C         9.31038566478911    2.61186460698920    3.86677571568604
C        10.48150206067121    3.35519494567159    4.00248808691332
H        10.90127259909039    3.54845614270547    4.97513871169101
C        11.11593605287857    3.84346180927877    2.87427971727929
H        12.02363925843986    4.41876818857039    2.96449745953010
C        10.56482131348844    3.57010977831062    1.63197739608413
H        11.02755699161714    3.91896305440793    0.72367346587864
C         9.39661420319054    2.83051887563696    1.57450398213975
H         8.94385611770058    2.59641509376288    0.61965304953883
C         6.50136265041202    1.57131375525421    0.74739956255250
C         5.21364500309336    0.36485613405666    2.86687863382145
C         7.84160470936192   -0.39948519773037    2.26747250896630
C         4.98205511818689    3.41157413290925    3.96674108720932
H         4.44679358416070    2.63434830381290    4.47833706666944
C         6.37486907688326    4.46068441052893    2.72074596361408
H         7.18717083246986    4.61113393661792    2.03684433956052
C         5.53423027508402    5.38838858885718    3.26042057615556
H         5.49356909497028    6.45057626529781    3.13922951938228
C         3.60695279737885    5.28273366624522    4.85040183234509
H         2.79325497934971    4.55839511865399    4.93499294314425
H         3.23473866637796    6.17295842970848    4.34128032236017
C         4.12821111722241    5.64789251189647    6.24412304847509
H         4.91807025998300    6.39662545141956    6.14892464140925
H         4.56478383564170    4.75464226843283    6.69961768607726
C         3.02423651504855    6.18661615728301    7.15454121885723
H         2.21378805291584    5.45749984161413    7.21167135995107
H         3.43895765416374    6.29769967746513    8.15779746807617
C         2.47150620418678    7.53154699565430    6.69855615367860
H         3.27405490802247    8.25616309261670    6.58050234307259
H         1.77657980743214    7.91509124675312    7.44007383801371
H         1.93680543675830    7.44519981299966    5.75616427589448
N         7.51430365265538    1.27927124181641    4.70134115621582
N         8.77497113742505    2.36573918810089    2.65584690927363
N         6.02002531170921    3.22475362139907    3.17161330088389
N         4.65313433259046    4.70705570099985    4.04225675008226
O         6.28228519242719    1.79536583537092   -0.34905523023206
O         4.21508576139160   -0.15790377513962    3.05185778123839
O         8.40958989191646   -1.36855273816865    2.08231515564833
Re        6.92238478453168    1.28709150682647    2.63879251742202

