88
CSD_code = MEWYAR | q = 1 | S = 0 | Stoichiometry = C46H34Br2CuN2OP2(1+) | MND = 4
C         8.01937336578872   11.18231862451771    8.78222208464921
C         7.42465717273766    9.92126859496114    8.75159950532197
C         7.98663000178947    8.90758744041933    8.00057707940824
C         9.13390700047076    9.15363827513707    7.26069715614364
C         9.71228849100229   10.41228592197387    7.27030885462671
C         9.15707076117709   11.43178804647772    8.02492144573252
C         8.11552714415267   13.96337087734554    9.57424939900984
C         9.38274577728891   14.11453993506544   10.13106521635743
C        10.04800705413561   15.31977689223947   10.00354540259937
C         9.45528920146849   16.37675539833112    9.33039006483307
C         8.19583536216192   16.22897244858606    8.77341749869216
C         7.52763460664098   15.02486322105118    8.89517521191261
C         7.61716910137043   11.99627012504699   11.47717757408514
C         8.46837213542318   10.97493338126045   11.87344323442923
C         8.73480343262347   10.79172451916822   13.22084444207330
C         8.15026002542603   11.61172119435924   14.17189753849491
C         7.28173695789631   12.62400570069729   13.79104898461679
C         7.02136842021615   12.81073688946678   12.44526398239344
C         6.37612439712765   15.06959111475926   11.95913765127894
C         7.46179426674841   15.67928742028753   12.56033990375574
C         7.61417244842970   17.05092185904040   12.43243308881781
C         6.70319009731193   17.79991177125992   11.70785383459812
C         5.62639217986293   17.18513632543566   11.09085919868943
C         5.44705493246506   15.81689476663791   11.22322450468977
C         3.37888044023865   15.99350031190092    9.26878492031267
C         2.57274172102721   17.02343428608086    9.74729332262629
C         1.97823062649250   17.89852844819027    8.85738946960117
C         2.17821795476516   17.75033716967858    7.49302981341984
C         2.96976515780739   16.71988549726885    7.01295170312476
C         3.56666691278886   15.84142113707507    7.89945230079116
C         2.90046098724019   14.54881460063145   11.62657261713705
C         3.10850216561875   14.67380956790553   12.99420746516254
C         2.08004522158473   14.38615150331666   13.87555021043887
C         0.84687719231578   13.97186972340844   13.40070686371322
C         0.63650152669827   13.84331954756589   12.03568527163750
C         1.66059987499506   14.12204493238960   11.15242110069701
C         3.55571244390760   11.45956276735871   11.88081179810728
C         2.38477415368844   11.03901707234603   12.48264134430670
C         1.34639069761776   10.62443040281891   11.65623915619763
C         1.52387971828419   10.60471331835298   10.28125196561374
C         2.74727702278882   11.02960677445222    9.77235410199648
C         3.06336977499038   11.05088963103598    8.33897003607952
C         2.43918497127181   10.21613194488866    7.41728214744801
C         2.83926728150916   10.27928479131990    6.09092361246177
C         3.85171239598250   11.15918848259592    5.71993488159130
C         4.41607396540277   11.94511125767627    6.70612949550133
Br       -0.31461457817588   10.10675438814937   12.40381574759985
N         3.72956754564936   11.46414169805832   10.56927757468920
Cu        4.92871135897642   12.80995539771044    9.53603258995930
P         4.19601311900379   14.80506903721803   10.37631600880083
O         6.10158627007430   13.72909692084541   11.97377512310984
P         7.15068886182697   12.43315510011684    9.77055982817752
N         4.03143551286141   11.90117335604617    7.97293956401318
Br        2.02050753061881    9.16128614631405    4.79884507933759
H         0.72213824877757   10.29462464975878    9.63123909034469
H         9.84034014679113   13.29105133796694   10.66259654748767
H        11.03111083289981   15.43700107232162   10.43393277859831
H         9.97691490506865   17.31710064153161    9.24087594013623
H         7.73318284067341   17.05226896176144    8.25075156026031
H         6.53535810714625   14.89755812120136    8.47620381638300
H         6.52289671760075    9.75214474980918    9.32926755957030
H         7.53269007708688    7.92794482363443    7.98596743692149
H         9.57349314962205    8.36345749162098    6.67167388634127
H        10.60067763072326   10.60207065254527    6.68713114659275
H         9.60617653515506   12.41472464070510    8.02756992500212
H         8.92357358644597   10.33415260939842   11.13213115194819
H         9.40474087284621   10.00439630033693   13.53006340587800
H         8.36500871556088   11.46228451791586   15.21855090320426
H         6.80959091565895   13.25712995999908   14.52781347998769
H         8.18628430462651   15.09324699778413   13.10573478771469
H         8.45871735076278   17.53270117887473   12.89985735801952
H         6.83683862660020   18.86600231491560   11.61309039502811
H         4.93137271976432   17.76540438769314   10.50260687478740
H         2.41100663207433   17.12980372408268   10.81135037904372
H         1.35497725185120   18.69861191540004    9.22737110094252
H         1.71035275373891   18.43628281704227    6.80361666190209
H         3.11730113836308   16.60058736945637    5.94995218159660
H         4.17701179427247   15.02127307948353    7.53995505786407
H         1.50859586659762   14.02290213435303   10.08411513128384
H        -0.32778854609696   13.52856791452779   11.66481948643530
H         0.04666089121503   13.75303004111880   14.09097188614077
H         2.24009231813757   14.49299601744353   14.93812740918589
H         4.06543069190299   15.00908286797404   13.36740729329176
H         1.67841995068734    9.51713229743030    7.72375316979683
H         4.18517118625943   11.22463937912202    4.69756545896329
H         5.21160345495419   12.63901874394409    6.47223981493458
H         4.39347400233198   11.80258244612677   12.47047895346797
H         2.27615216861858   11.04313788657388   13.55428000009895

