95
CSD_code = MEXCOH | q = 0 | S = 0 | Stoichiometry = C34H54MoO6 | MND = 6
Mo       -1.33636689866066    1.96248499525068    2.65639994169161
O        -0.06826137745466    2.28298357578633    3.94947063619138
O        -2.15639011308883    3.37454313382357    3.65589867823141
O        -0.26235378144973    0.77333418264568    1.92493539645811
C        -0.16660113674316    3.35656404784845    4.74472352150487
C        -1.41400656590244    4.00032517355231    4.56150147230764
C        -1.74647123964170    5.15596335382494    5.27480711453111
C        -0.78647518821740    5.61298542994777    6.17091423670153
H        -0.98082054359871    6.49791799975154    6.75486677261729
C         0.43513460966678    4.98178896300361    6.34614479068131
H         1.12601817633817    5.40851043940439    7.05453872246030
C         0.79137036613015    3.83968427654196    5.63593306600298
C        -3.07952502924297    5.84074084985854    5.01871532227379
C        -4.21332120891543    4.84486775036016    5.29851947573294
H        -5.17967187410565    5.31664688588851    5.13045707524531
H        -4.16874603916096    4.50085040750564    6.33063608669842
H        -4.12774693701569    3.98731771111790    4.63503236858799
C        -3.13046230844590    6.26972062993539    3.54536865653366
H        -4.09693643564517    6.71372451074314    3.31392340839543
H        -2.97645289095981    5.41388981527466    2.89010862187272
H        -2.35379172269943    7.00361801297269    3.34141015757545
C        -3.28409235360727    7.07573011768421    5.89940890350333
H        -4.25035842546487    7.52341514919756    5.67536495304229
H        -2.51543648549466    7.82119902255589    5.71097477016116
H        -3.27037126761253    6.80931234649821    6.95371609000873
C         2.13380131880836    3.13674961450118    5.74930778716823
C         1.89798497179427    1.67556594841227    6.15628767868364
H         2.84695992306712    1.14870477511298    6.23788464375757
H         1.28453426297255    1.17151624187902    5.41164240331334
H         1.39106070548559    1.62934569523487    7.11867829856172
C         3.05524462207434    3.79029587362464    6.78159535425787
H         3.99715133983547    3.24664760872400    6.82203851721080
H         2.60804252477799    3.76771284546844    7.77257395799968
H         3.27174610925098    4.82126496465711    6.51315890809357
C         2.81501689051310    3.18660390115093    4.37402822644572
H         3.76934873765398    2.66375817122365    4.40453734667377
H         2.99200670446843    4.21959732745375    4.08106449999665
H         2.18318220724392    2.71817954837885    3.62033071670954
C         0.19080237558842    0.03868804534639    0.84484769001350
H         1.25299259237331   -0.22274164197089    1.00348096218494
C         0.05391355981440    0.88501636740062   -0.42601619806574
H         0.41057946887962    0.33767119777938   -1.29494673250772
H         0.63103311728129    1.80167074807814   -0.31827837215328
H        -0.99590533109909    1.14898694351149   -0.56737029448785
C        -0.64767047012675   -1.24175127574512    0.74560046180386
H        -0.39873139985523   -1.79797110238586   -0.15393812104778
H        -1.70189830275515   -0.95964104268535    0.72324533424951
H        -0.47110607709256   -1.87106790390846    1.61508113045444
O        -2.60467992937077    2.28322531957871    1.36361308424195
C        -2.50611106900036    3.35669287079751    0.56824498022660
C        -1.25865744775023    4.00040881643256    0.75154400594312
O        -0.51635282779486    3.37474534471268    1.65726785422460
O        -2.41048238188137    0.77358997429706    3.38805742321777
C        -2.86297636942973    0.03843947887908    4.46811277027698
H        -3.92498398535695   -0.22377157016932    4.30954407177220
C        -2.72673920329153    0.88477303032353    5.73905238697731
H        -3.08331614925392    0.33716263386483    6.60786733149405
H        -3.30429473564863    1.80118253886298    5.63125437174594
H        -1.67701938102840    1.14914381452141    5.88057927529993
C        -2.02367174754168   -1.24146540324661    4.56739700779244
H        -2.27227106108480   -1.79802083475608    5.46684479366781
H        -0.96966938232995   -0.95847021675398    4.58989272865671
H        -2.19965294991890   -1.87080425614263    3.69780570618382
C        -0.92602844550836    5.15592759370528    0.03814106470590
C        -1.88588532932623    5.61289874489811   -0.85812241346642
H        -1.69142796111992    6.49774065183559   -1.44216397447727
C        -3.10752004118688    4.98177596450523   -1.03342775785403
H        -3.79828930011027    5.40846043861685   -1.74195230088600
C        -3.46393457663367    3.83978296784338   -0.32314405084429
C        -4.80644151134697    3.13700557301168   -0.43661122867062
C        -4.57078966590168    1.67573039052961   -0.84335444981921
H        -5.51982752494793    1.14898583488085   -0.92498935942700
H        -3.95748704796331    1.17170226779346   -0.09857355546364
H        -4.06376169066841    1.62930827326919   -1.80567781139457
C        -5.72766507537538    3.79052906091680   -1.46911270735309
H        -6.66964421515170    3.24701080662731   -1.50960426923538
H        -5.28033773408187    3.76773802424018   -2.46002757758885
H        -5.94405500195534    4.82156676748060   -1.20085512521610
C        -5.48783201817659    3.18715120083499    0.93856807406986
H        -6.44224917812336    2.66446473705158    0.90800466941747
H        -5.66469540656848    4.22020949457415    1.23137658922939
H        -4.85617374899585    2.71872174029441    1.69241005946018
C         0.40703079084038    5.84063308687366    0.29434387245682
C         1.54079098982507    4.84461151153133    0.01494093043236
H         2.50715429592365    5.31633129363231    0.18309631224716
H         1.49636277957026    4.50045444016856   -1.01713313805318
H         1.45501590614741    3.98716250805052    0.67854017039220
C         0.45774215849991    6.26978234597481    1.76764630001430
H         1.42419904284030    6.71376734460552    1.99920142106573
H         0.30355518594014    5.41404780597794    2.42300040396293
H        -0.31891554942456    7.00376488933031    1.97134715843906
C         0.61183743814149    7.07547055868723   -0.58650670895625
H         1.57811066632223    7.52308754478417   -0.36236268155536
H        -0.15678017911001    7.82104005108915   -0.39830647834319
H         0.59826738833695    6.80888291295968   -1.64077366733948

