38
CSD_code = MEXCUQ | q = 1 | S = 0 | Stoichiometry = C14H18ClN2OPtS(1+) | MND = 4
Pt        3.81042038829809    3.01580036453414    8.73793158690752
Cl        1.58691009433475    3.15533680867174    9.07032702118185
S         3.54934582870151    3.97889024626228    6.62162591091695
O         7.88803361155318    7.58327709229395    6.29885270846840
H         7.56598789898181    8.38574648820704    6.72878288859691
N         4.16299848360499    2.03333692832139   10.48995868951114
N         5.92638485216110    2.91867415701534    8.60529868219573
H         6.17075340694729    2.12231801419043    8.01307995908240
C         2.62873967682316    5.50963166454970    6.92321685954517
H         1.74231641441024    5.29633990327001    7.51405162342580
H         2.36043593400522    5.93503396481909    5.96015248365382
H         3.28603028270229    6.19017571267746    7.45543329264197
C         2.24852470509828    2.99953731390901    5.82474144913229
H         2.64450480702279    2.00397827828881    5.64705268345613
H         2.00498003115452    3.47186504684591    4.87696353822219
H         1.37696016790803    2.94767704592800    6.47101450683032
C         3.24608170792716    1.40680923466271   11.22883031044740
H         2.21448993059520    1.52360823506377   10.92517623340245
C         3.58216981978633    0.64968790265419   12.33643495473989
H         2.80865616560817    0.16486553417717   12.90847790064580
C         4.91822895722421    0.52939427146232   12.68661437343446
H         5.21609003997813   -0.05545406209314   13.54225575922140
C         5.86868268799154    1.17471243463179   11.91131505773980
H         6.91782476203359    1.10470198321754   12.15035641065591
C         5.46057541327878    1.92231775599194   10.81666181758553
C         6.44383457023546    2.68509008642934    9.96974004135969
H         7.40905434139114    2.16743168200274    9.94423838415467
H         6.60924701507000    3.66269160263907   10.43767670370405
C         6.44454697473637    4.11895895308377    8.00458362480857
C         6.03362790670274    5.34761563007471    8.50858896511907
H         5.33382249163629    5.38201232322441    9.33790934010769
C         6.50593897210311    6.51996920706523    7.95292134578515
H         6.18709106288003    7.47311379000688    8.35036709998286
C         7.39591326109824    6.47692771307483    6.87981806181260
C         7.79502243751837    5.23977517466337    6.37140635930160
H         8.47865184697121    5.22262008482007    5.53916978685412
C         7.32593788056180    4.07108706831161    6.93304972325216
H         7.64268517096527    3.12024436505208    6.53082386211602

