41
CSD_code = MEXDAX | q = 1 | S = 0 | Stoichiometry = C15H21N2OPtS(1+) | MND = 4
Pt        1.80429059770665    5.52371659658793   10.67553159072892
S         1.71547805193719    7.16613892312396   12.31267550284759
O         0.01664555242562    4.03426381972632   12.13416959232486
H         0.13857795903890    3.49173945319938   12.92168663577493
N         1.71733568422674    4.40791328208176    8.98045962729358
N        -0.36235969794913    5.85484666032374   10.14663677192075
H        -0.49887672856951    6.69415776844361    9.58456687145495
C         3.71798874014835    4.96590437304548   11.13549363504184
H         3.96009173387549    5.13982525020538   12.18578914591855
H         3.83680061827079    3.89472163443823   10.95000719324291
H         4.44718412624871    5.50858063217087   10.53010939583812
C         3.25361599368109    8.12139861639752   12.18471435088955
H         3.32321994972748    8.49377468220649   11.16722859545591
H         3.18967111648966    8.95609732603680   12.87762433072982
H         4.11305884697474    7.50045368795603   12.41260855658996
C         1.93688615575960    6.47342659012221   13.97630778203122
H         1.00423991595639    5.99400577434639   14.25497693197403
H         2.75298280434864    5.75878695139983   13.99716272806024
H         2.13410300393527    7.29803803563170   14.65499893622392
C         0.47893731914506    4.22821690114916    8.49416606544570
C         0.26145519606833    3.62226075401738    7.26405948088887
H        -0.74726858141532    3.48938794030228    6.90628745527267
C         1.34071258866217    3.19485045537674    6.50979700948460
H         1.18947929391129    2.72137688550367    5.55295002585840
C         2.61597792930545    3.39934301083674    7.01346725312102
H         3.48912635325597    3.09278352969518    6.46174478266933
C         2.75931075295981    4.00952485224689    8.24563839287370
H         3.74258557206326    4.18039929625714    8.65753257352819
C        -0.68196380517470    4.66243182768001    9.34762633680832
H        -1.57009479206380    4.82085449831599    8.72426972435202
H        -0.90161830330663    3.84308656698578   10.03985006655403
C        -1.11827313891283    5.96420753976459   11.35190197445580
C        -0.91229744012841    5.01551290389528   12.36299978969086
C        -1.61686552966599    5.10960356560539   13.55168873587964
H        -1.45680420455150    4.37106970895526   14.32514245278441
C        -2.51297765654186    6.14726575516781   13.74962245285724
H        -3.05502544116928    6.21177783382261   14.67911621859138
C        -2.70411486885004    7.09713058108286   12.76283531515944
H        -3.39521396334291    7.90943973500132   12.91760169515301
C        -2.01237283621087    7.00055158347512   11.56717730343132
H        -2.16072886826771    7.74173421741810   10.79537672078193

