48
CSD_code = MEXJUX | q = 0 | S = 0 | Stoichiometry = C20H23ClN2ORu | MND = 9
Ru        2.26183565266358    2.17437556979778    7.90108856838814
Cl        1.30523884328073    0.03351198688197    7.79783651939232
O         5.01693315030592    2.27253731683314    4.66353680329781
N         0.36862915582221    2.85858149452027    7.92869724405294
N         1.77984579946895    2.19452173376815    5.91581084929447
C        -0.52093939556223    3.20436906580493    8.85034890400838
H        -0.28674694655827    3.20698560521754    9.90043073749802
C        -1.73806450959329    3.53644446853362    8.24233374518950
H        -2.62393290977575    3.86291115999246    8.75183111884017
C        -1.57139552192131    3.36995589221690    6.87925089808198
H        -2.29698750928490    3.52647409026846    6.10539949487884
C        -0.24913934971710    2.93254116874725    6.69910901670975
C         0.55425577523919    2.52285277427766    5.62632694171357
H         0.17353496585869    2.45067769477418    4.61086982520880
C         2.65043432033202    1.65924819484917    4.89680343323284
H         2.06834261554378    1.40459216772628    3.99962027618605
H         3.11645347979329    0.74371920980143    5.28106581131579
C         3.72383494892498    2.64059328238544    4.54372923580918
C         3.64547545489879    3.93636694039211    4.12113997185253
H         2.75055663284920    4.49568572437021    3.94005062057315
C         4.98100622396723    4.38630984975878    3.97437624958122
H         5.30317078981988    5.35705787220471    3.65743578053190
C         5.76887325679102    3.33203734865612    4.31582101276404
H         6.83351791568836    3.21110504217113    4.34724141521458
C         4.43990082213325   -0.20354399357804    9.16072110998436
H         5.27129677304532   -0.48264057756875    8.51721720386825
H         3.57733223616224   -0.82318796795235    8.90069962631792
H         4.70145992542967   -0.40671040660741   10.19806317831430
C         4.07212682774864    1.23544660802294    8.97740469168062
C         4.55511727174579    1.98673815095528    7.89876440188339
H         5.26071524117381    1.54532280040951    7.20396248904792
C         3.21708855726246    1.87479223494635    9.92535473762277
H         2.89038462150406    1.32115306828873   10.79913032028135
C         4.16518654923294    3.34217525200179    7.73314579263998
H         4.60097502106910    3.91661474520625    6.92357316698995
C         2.88525641101014    3.23025623167959    9.78604663874776
H         2.30713361097761    3.72203873173138   10.56257726315455
C         3.35681769862500    3.99752108575097    8.68671201980352
C         3.05299934719689    5.47320581656593    8.58054526368406
H         2.34467926606206    5.73284952693366    9.37575357451973
C         4.33135138015832    6.29202093077035    8.78631248647184
H         5.05328074903256    6.08373319655565    7.99965142606066
H         4.78844298285320    6.05536323862938    9.74512549599587
H         4.10048369561175    7.35426451487757    8.76705727998984
C         2.39892132390597    5.80502328507460    7.23761785866143
H         3.09522632761139    5.65137125519004    6.41660442482741
H         2.07702578520920    6.84362226278341    7.22464077405975
H         1.52926473640682    5.16761435538227    7.07886430177809

