52
CSD_code = MEXKAE | q = 0 | S = 0 | Stoichiometry = C22H25ClN2ORu | MND = 9
Ru        3.94378745488206    2.16642108053283    1.92176352706129
Cl        2.82433571334080    0.14872310195088    2.36037610131175
O         4.76375554674196    4.46266379561413    5.56264437791015
N         5.60734287797380    1.13438697100711    2.39445291599754
N         4.03898567837846    2.38843384658941    3.93888025923137
C         6.49693488021361    0.39137046957358    1.75014199786896
H         6.45276539673150    0.24205516960747    0.68540108873668
C         7.43049886394690   -0.13199083954209    2.65437928476873
H         8.26326144415940   -0.75942318709490    2.40152520355121
C         7.07424371152448    0.31731507502217    3.91304318152909
H         7.56000623215576    0.10910662697796    4.84606700610788
C         5.92271022586680    1.10256366321162    3.73642750762184
C         5.03336729751239    1.81067577689938    4.55498405955758
H         5.13402605196552    1.85532185403917    5.63376427611268
C         3.06928321835160    3.13719188854206    4.60345807787303
C         1.72615298852411    2.84017310376637    4.39865206123619
H         1.48388218790999    1.99685696124398    3.76501786556307
C         0.73768962028467    3.58853864015247    5.01125459753798
H        -0.30098924927947    3.34294475844894    4.85280231146942
C         1.08824559054155    4.64606527735201    5.83024260604542
H         0.32509793570959    5.23818919802218    6.31252234195785
C         2.42193676176454    4.96087806999214    6.04232492204120
H         2.66901077709959    5.79335067971263    6.68238067147198
C         3.42515423754584    4.21554639101563    5.43982601686866
C         5.18094562537042    5.53318937696061    6.37251356853594
H         4.80171540921522    6.49229656087111    6.00350142774669
H         6.26860411293334    5.53150342003799    6.31904631911804
H         4.86946659834512    5.39685481697415    7.41289725898555
C         1.01437492808229    1.97343398338432    0.08651562161102
H         0.17103527796135    2.55908898285165    0.44540537335658
H         1.01207897267091    1.01046158279864    0.60471939402301
H         0.89718421781697    1.78439160118633   -0.97925910447265
C         2.31150123319400    2.66539822207176    0.36655892741928
C         2.39020190164697    3.73356246669598    1.27172205822766
H         1.49075768611268    4.11477824924177    1.74158502367018
C         3.49851981220779    2.24679832076162   -0.30304658061269
H         3.43688338434479    1.46931262917554   -1.05675548363917
C         3.63929152083540    4.34232504559276    1.55588548674258
H         3.65978205521071    5.18780006272135    2.23599312605954
C         4.71827906570610    2.90024277474701   -0.06017026988727
H         5.59544475644453    2.62339006332719   -0.63738108974685
C         4.81462284164949    3.97446031692796    0.86274881854379
C         6.11152172669189    4.72603967523784    1.05116365616321
H         6.87212556800266    4.25728013663743    0.41575188841246
C         5.95139482010318    6.18408789508514    0.60875694429471
H         5.59947028431610    6.23616066190871   -0.41979486653695
H         6.90680062463903    6.69930286232170    0.67238814735919
H         5.23881751965381    6.70641122770257    1.24303247580184
C         6.58997752866983    4.63978095602178    2.50205608785957
H         5.87328435916199    5.09620877166885    3.18017302924926
H         7.54398808681557    5.15027685323263    2.61323825701632
H         6.71734463838548    3.59810411121026    2.79312224525952

