98
CSD_code = MEXKUX | q = 0 | S = 0 | Stoichiometry = C45H43AgClN5P2S | MND = 4
Ag       -0.62003389344352   14.00339358314213    2.05709149259805
Cl        1.44367914964471   14.83721091665436    3.04263563913554
N         0.28002526812984   17.22477318575593    1.25400017248386
H         0.63789935027640   16.62223346570604    2.01353868368955
N         1.09864675996579   17.95122901192527    0.47163834502721
N        -1.40372539470378   17.90768251787232   -0.13361547507895
H        -0.65211778862783   18.43384136954642   -0.56392167576674
N         4.37851751592525   19.16867200311371    0.07357721727775
N         3.23459619967557   20.05886626217865   -2.28719424664363
P        -2.33707897750557   12.22548431324520    2.33035838984628
P         0.08354631960108   13.89962878885391   -0.51981788305893
S        -2.12767732586308   16.30706596884425    1.83825984747239
C        -1.03291233925926   17.18110166557715    0.92692374999312
C         2.33241768500889   18.14201514987906    0.77552491122821
C         3.01862261035577   17.67777228489815    2.01365739067506
H         2.63827627634377   18.23856863584648    2.86877827138943
H         4.08613698984413   17.84836606646102    1.92733793861119
H         2.81957632341339   16.62439960679276    2.21034173933193
C         3.09635541659772   18.91847053459970   -0.19843395423272
C         5.07701102097591   19.84757123920905   -0.81866823818352
H         6.11349936717367   20.03388544674890   -0.57027255078412
C         4.51191871616246   20.29288217728969   -2.00473866994685
H         5.07535420365600   20.84373550435856   -2.74461112580012
C         2.53611485269178   19.38265396147363   -1.39924730603105
H         1.50114275759978   19.18930730820621   -1.63899104614624
C        -2.75708369041534   18.16038308557706   -0.55172567175632
H        -3.40388049105969   17.48620349968162    0.01378210880054
H        -2.84420489107948   17.92918826859830   -1.61877750357460
C        -3.15711851615200   19.60928359627853   -0.29090471405138
H        -4.18014633456862   19.77618565276247   -0.61591924959824
H        -2.50417434653965   20.29136317254241   -0.83141050773317
H        -3.08917854803287   19.82940547068179    0.77148735640389
C        -3.36150870079465   12.28676641768943    3.83644275806521
C        -4.70954575476875   11.94828604406665    3.87152931661213
H        -5.22481740039344   11.66869541633160    2.96267553353392
C        -5.39553552675474   11.98767115571073    5.07227662605492
H        -6.44400759933631   11.72759049980231    5.09797047976025
C        -4.74536128456020   12.35901151469477    6.23769026730529
H        -5.28755463044803   12.38764436567346    7.17129147146252
C        -3.40327576319157   12.70269919998870    6.20482390062064
H        -2.89788041355722   13.00185961927169    7.11111295443344
C        -2.71459135081734   12.67058037562808    5.00746359674859
H        -1.66791355675405   12.95295706864041    4.96473934424203
C        -3.59444108670301   12.18507812368351    1.01867715598251
C        -4.36231374146780   13.34029193558679    0.87706948600817
H        -4.21632045981616   14.15871859819099    1.57090016460280
C        -5.29300851798685   13.43584093774635   -0.13800211455663
H        -5.89566767097761   14.32721561947294   -0.23332702067351
C        -5.44794835597065   12.39141138697730   -1.03676573009680
H        -6.16853750045048   12.46851229893185   -1.83754599769437
C        -4.67677553828560   11.24909473751063   -0.90918851019861
H        -4.79483014266727   10.43568065128249   -1.61059456031142
C        -3.75282167453692   11.14014983537671    0.11599549551320
H        -3.16104156598381   10.24060875723324    0.21687908671073
C        -1.72558662220818   10.51080462864310    2.43124348918464
C        -2.57300611694300    9.43170790879466    2.66542887360809
H        -3.63440225516754    9.59743015896887    2.78903274724439
C        -2.05224817405179    8.15385164081643    2.74405652411934
H        -2.71002828231856    7.31565500072470    2.92334739563953
C        -0.68883811824157    7.94573023663143    2.59798438355354
H        -0.28815010933713    6.94475472824515    2.66151188987987
C         0.15905339063896    9.01861311254123    2.38085750877790
H         1.22188982621933    8.86028921782078    2.27492311006986
C        -0.35822582113216   10.29883673141811    2.30061196052137
H         0.29655108702649   11.14951072454346    2.13776850682442
C         1.43705804055928   14.92917690194846   -1.17214330915921
C         2.59289730602276   14.99747360751868   -0.39477808326667
H         2.61774147472687   14.49254105948822    0.56231265199817
C         3.68322659800010   15.72467943622234   -0.83299791953684
H         4.58049250565437   15.76501481522526   -0.23357480023967
C         3.62014094643982   16.40806320194620   -2.03688167864947
H         4.47527149897607   16.96866419532859   -2.38670572047814
C         2.45381704096736   16.38918919180846   -2.78311238379616
H         2.39621871322061   16.94811583219643   -3.70594943820906
C         1.36163527153512   15.65490347227031   -2.35514537122486
H         0.45490230662050   15.64298307372195   -2.94353786422334
C         0.69999419258947   12.20855986495224   -0.83920103200597
C        -0.26041999230790   11.19927092763457   -0.79188172633663
H        -1.29635297342999   11.47046843529789   -0.62967702713922
C         0.10117346930355    9.87747081588832   -0.95381973353919
H        -0.65083943901465    9.10239607830203   -0.91528516635985
C         1.43202378720604    9.54585462844720   -1.15557594865705
H         1.71968347535237    8.51186833915764   -1.27605933113077
C         2.39073119360498   10.54327374476216   -1.20019105239169
H         3.42854410894239   10.28780794437690   -1.35846616077967
C         2.03178796919923   11.87145984609726   -1.04193160268491
H         2.78912192620721   12.64090035637012   -1.07930864756252
C        -1.17416870988592   13.99573551504947   -1.84029656816951
C        -2.35914396640932   14.67099373577033   -1.57767570309604
H        -2.51356631805608   15.11127066442601   -0.60276381758471
C        -3.33796957494478   14.76715807783779   -2.55089739901153
H        -4.25524653045722   15.29722933758210   -2.34119405482159
C        -3.14250399023695   14.17874653975609   -3.78807358840627
H        -3.90722450768345   14.24767133919159   -4.54791493474513
C        -1.96402997860483   13.49762218565003   -4.05331473465004
H        -1.81185227477442   13.03763378358748   -5.01911848232900
C        -0.98058195606106   13.40635872808762   -3.08718458479908
H        -0.06047642734578   12.87727196155492   -3.29411831609322

