81
CSD_code = MEXLEI | q = 0 | S = 0 | Stoichiometry = C34H40I2N4Zn | MND = 4
I        -2.99273981905309    8.12895004982805    6.31242973789091
I        -5.72813238086653    7.88177792066344   10.08154715781079
Zn       -4.18137806463641    7.04842584029934    8.26527871869371
N        -5.16511831630258    5.32578926994502    7.40162090293038
N        -2.69550798900726    5.84390551397762    9.27379154030480
N         3.96666758868090    0.06787337375573   15.48174874779455
N       -10.85245867506948   -2.51608587926445    2.65815734014845
C        -6.42327391097943    4.97990943489455    7.67376319568614
H        -6.93131839836438    5.57292957888233    8.42190041488436
C        -4.51476906067379    4.60288555114747    6.48993875006573
H        -3.49535960254293    4.89745347569162    6.28191536610390
C        -7.07624979258896    3.93803598639599    7.05648694797009
H        -8.09606249225008    3.72513887136081    7.33206220104385
C        -5.08171616919580    3.54075185874309    5.82627530688079
H        -4.50188276453188    2.99799624547181    5.09524037346227
C        -6.41167202808348    3.17499848230901    6.08586337422875
C        -7.00094922606776    2.07654214757087    5.36723502312327
H        -6.32176154330100    1.55478712563924    4.70697693044138
C        -8.28993798188600    1.68827790405062    5.44078824462442
H        -8.96614008976764    2.23379176983833    6.08696449188229
C        -8.90166006581496    0.60439376927707    4.72217855587328
C        -8.20954413091780   -0.25395604948050    3.85874649761530
H        -7.15041644985068   -0.11899790761356    3.70137504327495
C       -10.27331871097399    0.36470511234969    4.87485162192808
H       -10.84693330022604    0.99917611045306    5.53641846536952
C       -10.91448728757569   -0.65474983581134    4.21512382111100
H       -11.96934652308058   -0.78404744120372    4.39208487368250
C        -8.84086657098923   -1.27840631342425    3.19869820006141
H        -8.24687587545796   -1.89588005279627    2.54560444252089
C       -10.22110562959967   -1.51616422863538    3.34509742790763
C       -12.28583342027281   -2.69014192729219    2.73004173552429
H       -12.76051592949556   -1.70634983508745    2.75678541067709
H       -12.61209376943787   -3.17733047694250    1.80639706602124
C       -12.74707633514865   -3.52509124492616    3.92684897366025
H       -12.39748760802880   -4.55022786265711    3.83703873651673
H       -13.83308273311197   -3.53630078161396    3.97257119002461
H       -12.36146022268754   -3.10995570918327    4.85448019374546
C       -10.09643982523457   -3.54794905915914    1.98023777145099
H        -9.36325338329776   -3.08666614809203    1.31056202684688
H       -10.79026668789400   -4.11389121880224    1.35508689279468
C        -9.38914094726615   -4.50824577811427    2.93881170690296
H        -8.71964694732046   -3.96606995386765    3.60134154134384
H        -8.80982904992352   -5.23337249280814    2.37287588734283
H       -10.11163036169094   -5.04295580248457    3.54938068072545
C        -3.00754207530477    5.21074263164513   10.40483256278766
H        -4.02632309083486    5.32132278659941   10.74950566715141
C        -1.44586201800225    5.71823576459729    8.82711469767581
H        -1.20832358114697    6.23561849337477    7.90779688435726
C        -0.48221534072380    4.98646755617900    9.48035837411651
H         0.51384948835123    4.93077154982204    9.06822572542427
C        -2.11153881416501    4.45791650362724   11.12745034403457
H        -2.44404684080708    3.98031298272047   12.03447057599752
C        -0.78813034879922    4.32800303513999   10.68116471697035
C         0.23684939457402    3.58698945452564   11.36661612222834
H         1.18959471168349    3.55957935343742   10.85579230658070
C         0.10062522602031    2.97025587348468   12.55790156262598
H        -0.85461493630556    3.01641833026983   13.06564581208364
C         1.11360085636419    2.23910353723451   13.26766448818442
C         2.41813737882644    2.04531004995976   12.79587709637685
H         2.71334062239553    2.46175132756057   11.84503073300800
C         0.80762424376053    1.67574367359885   14.51367255788495
H        -0.18905662063453    1.79861570095902   14.91468699265120
C         3.34980649347549    1.34107707864174   13.51689353054116
H         4.34035221342037    1.24480457173385   13.10359408384132
C         1.73081258139501    0.96546472788911   15.23986885527521
H         1.42107009341514    0.54728172259141   16.18340004022913
C         3.04174914566761    0.77118930552282   14.76690083412295
C         3.72440869192581   -0.35983474382717   16.84180365520084
H         4.68761609586761   -0.40053190398256   17.35799004040164
H         3.11351373346073    0.38502857858137   17.35681801277387
C         3.05502795317758   -1.73370063324236   16.91422238906438
H         2.09499220164475   -1.72005253023840   16.40504694191235
H         2.89859003301351   -2.01825432641968   17.95133199728939
H         3.68026674071489   -2.48617227941956   16.43921206851136
C         5.24866174443498   -0.30500693526178   14.92579614767204
H         5.55978324621736   -1.24151506414710   15.39716506455389
H         5.14112571326322   -0.50221046003436   13.85668118028848
C         6.32281017906710    0.75858118704676   15.16131588927731
H         6.03384574264454    1.70296638506749   14.70784784514828
H         7.26715884915702    0.43643468354546   14.73057128346856
H         6.46661277505801    0.92383263701118   16.22650939155852

