71
CSD_code = MEXLIM | q = 0 | S = 0 | Stoichiometry = C30H28CdN10O2 | MND = 6
Cd       -2.06138110632071    4.00563040818291   10.26421344963352
N        -1.65813988609355    2.17328893896094    9.33071794662733
N        -0.63251499150792    0.14556544083666    9.51215392829865
C        -0.94194038154157    1.30005828713154   10.06924792133062
N        -1.01706910182899    2.77544711747062   11.91954262607842
C         1.60143645417127   -0.55794043391060   13.33791985718734
H         2.16102688089263   -1.48076411512875   13.36205386339820
C         0.20419653157547    0.97929311846520   12.24693806001081
C         0.90035180542348   -0.22343457501783   12.20368495615269
H         0.87050098397924   -0.83632671222211   11.31815066930557
C         1.61497100084671    0.26606499482408   14.47728969526182
H         2.18490440523742   -0.05439577810448   15.33670552437669
C        -1.83146502316256    1.50841913144126    8.14578761735216
O        -4.39108816906800    3.06970132898386   10.37089650794820
H        -4.47596254938443    2.49338954708032    9.59920478947825
N        -0.58445730344106    1.64241852644177   11.35975789190035
C        -1.20724066335246   -0.66171664637326    7.20796345761848
H        -0.72233037806970   -1.62130754805517    7.29671085590119
C        -4.77451970129317    2.34323149915316   11.53367577511031
H        -4.18992998157713    1.41504664533633   11.61050288267932
H        -5.84023798910623    2.08224229630502   11.45914263969838
C         0.93055263657103    1.45492387456484   14.52771950793785
H         0.93829134642851    2.08869578781925   15.39927954694424
C        -2.48906725806360    1.87607964247966    6.97640367605673
H        -2.96695647951735    2.84201237144473    6.89063874859624
C        -1.86232609991087   -0.28224563607371    6.05801351836359
H        -1.89470560715133   -0.96020062312723    5.21699737054114
C        -2.49078024625846    0.96371148233653    5.94387666562881
H        -2.98906041627081    1.21212665501844    5.01767263350123
C        -1.18937551978563    0.24147851379010    8.26659776726673
C         0.20919043734272    1.82042393887124   13.38732142289139
N        -0.56169477184989    2.90267438273585   13.10846421269152
C        -4.53454285647424    3.21920647497975   12.75260443306895
H        -5.09576354672423    4.14588288549453   12.65493955121218
H        -3.47485925194138    3.46157804857193   12.83732336331579
H        -4.85686249291885    2.70213232768566   13.65220434037176
N        -2.46358499374494    5.83847496314872   11.19709567181413
N        -3.48794532284391    7.86679130436645   11.01520722207113
C        -3.17978968451287    6.71172621877991   10.45860124732297
N        -3.10704678330490    5.23519794193420    8.60910706588922
C        -5.72521446877281    8.56904027333572    7.19116684523156
H        -6.28438407560923    9.49211785060735    7.16700743824183
C        -4.32773967604778    7.03175592865900    8.28177036795923
C        -5.02325700023404    8.23485536727275    8.32495541688304
H        -4.99230058252923    8.84824330265073    9.21010787332963
C        -5.74022196163271    7.74435700364598    6.05230505232508
H        -6.31077751715111    8.06459942924623    5.19322015486036
C        -2.28876914287824    6.50400028536793   12.38143433887789
O         0.26933510099140    4.93997327105109   10.15937436892205
H         0.35479837297653    5.51607288544747   10.93115389236742
N        -3.53860008511989    6.36876989457508    9.16862016028772
C        -2.91075092822930    8.67515004067518   13.31839808557024
H        -3.39509199596880    9.63500919297790   13.22944507787376
C         0.65553449997175    5.66556730963474    8.99695832395517
H         0.07388664752436    6.59560095246703    8.92015932720947
H         1.72208425624028    5.92308550620604    9.07196970711236
C        -5.05644457935745    6.55512585124903    6.00194927297710
H        -5.06528729413532    5.92085160380860    5.13076568488632
C        -1.63043334437757    6.13664715168584   13.55050223147107
H        -1.15324519227065    5.17038725219357   13.63654932495382
C        -2.25493948061840    8.29598140915179   14.46803544076922
H        -2.22139777308466    8.97445151037617   15.30858949335207
C        -1.62722271256447    7.04967967540769   14.58244175924857
H        -1.12835522534288    6.80150838087798   15.50839512037647
C        -2.93011085556575    7.77129544121338   12.26035591159836
C        -4.33420797543424    6.18994581957506    7.14189729221136
N        -3.56356720386425    5.10750123129766    7.42067485535142
C         0.41317182802541    4.79068105237917    7.77772006326069
H         0.97084042102012    3.86190451577525    7.87559926823769
H        -0.64730506376593    4.55220584992629    7.69210021300542
H         0.73808908234715    5.30665273464014    6.87844875644173

