69
CSD_code = MEXRAI | q = 0 | S = 0 | Stoichiometry = C24H32Cl2N6NiO4 | MND = 6
Ni        0.71669092344173   -3.50107619864469   -2.06289937815489
Cl        0.76874161549898   -3.00567120215814   -4.22321497965905
Cl        0.66618548795319   -3.98174220580147    0.03105411443788
O         2.50865293785734   -2.41866700258221   -1.69968597925143
O         1.38883271844263    1.54585060854301   -3.78224718643897
O        -1.07829313721729   -4.61491039997582   -2.29008389051430
O         0.17660230186953   -7.29001453915110   -5.83673168584443
N         2.58792963308039   -1.37701989558068   -2.45578730875852
N         2.00702140929042    0.49672499156337   -3.45075600492253
N        -0.16585923322366   -1.81252177971636   -1.68510720777459
N        -1.11187331412076   -5.22279445552478   -3.42692184518451
N        -0.46691689971166   -6.48328771072076   -5.11019405198460
N         1.59913491208074   -5.19426406655109   -2.41878117402244
C         1.61726340641497   -0.46223489810305   -2.61325986799016
C         3.78789804320138   -1.04912527208225   -3.23104806523526
C         3.27403499098959    0.11131448868074   -4.12117281487688
C         4.27035213684397   -2.28784001017455   -3.98072020177482
H         4.57904608574780   -3.03849709980558   -3.25636741318865
H         5.11747844499335   -2.04057858082468   -4.61358140738411
H         3.47642919619682   -2.71326330897297   -4.58706162920896
C         4.85065427148250   -0.63288677342514   -2.20561536743800
H         5.78886749869394   -0.39242483548498   -2.69649136474906
H         5.01366450731569   -1.46333537819158   -1.52197820275921
H         4.51917217503087    0.22107575930113   -1.61968620258603
C         2.86041051287918   -0.32482232977762   -5.53099625646337
H         3.72781061985268   -0.60626786183879   -6.11973694642941
H         2.36119491376295    0.51085561841750   -6.01662583802600
H         2.16266345093454   -1.15844143940213   -5.48968034953654
C         4.18089675439974    1.33184442980905   -4.21451999974115
H         5.09250776349735    1.08201048256598   -4.74928644299129
H         4.43511771571554    1.72725848472167   -3.23603259303334
H         3.65073277328328    2.10846336768854   -4.76096616948964
C         0.29140664543739   -0.59352868271233   -2.03563483299587
C        -0.50608104314552    0.54650716876361   -1.89597823448124
H        -0.11148579428460    1.49525001625030   -2.22234183368293
C        -1.77661135533086    0.43105176236954   -1.37267735628101
H        -2.40263364088294    1.30302070944879   -1.26042290858688
C        -2.22315356843225   -0.82456026622948   -0.98988616036427
H        -3.20199196195891   -0.96836426949933   -0.56186467741814
C        -1.38722570069019   -1.91211859382848   -1.16510078535759
H        -1.70634393654263   -2.90513731812012   -0.87790021991114
C        -0.12540137693504   -5.98780751933653   -3.92241397103574
C        -2.27178967646279   -5.16786833169178   -4.32143132110820
C        -1.70663480379805   -5.83240143283371   -5.60286215906822
C        -3.37672807428805   -5.97551262857967   -3.62790836596719
H        -3.57798458675420   -5.52269357943329   -2.65937939650982
H        -3.06514965876343   -7.00319682604310   -3.45702890130513
H        -4.28934285475389   -5.96727982087816   -4.21619935969572
C        -2.73093426872608   -3.72100707681397   -4.47989540019770
H        -1.91426041951026   -3.08372242608354   -4.80524349257319
H        -3.07884787368013   -3.35566739139708   -3.51607169165797
H        -3.54629688996686   -3.65925970009459   -5.19449798220706
C        -2.59545365691423   -6.88257541583768   -6.25710501020103
H        -2.89129539417813   -7.65942644286341   -5.55897959209869
H        -2.03202143572806   -7.35228668153277   -7.06008346989555
H        -3.48346862771527   -6.41618144707762   -6.67341469771939
C        -1.23485886531671   -4.83216242656935   -6.66394777784185
H        -0.70651972879384   -5.37968377522351   -7.44143805276484
H        -0.54766455553837   -4.10657871811989   -6.23411706309954
H        -2.07780208694776   -4.31385188398706   -7.11005420904495
C         1.17190034041100   -6.13373568350998   -3.28641541257632
C         1.97576792135236   -7.22724365896130   -3.62300639498022
H         1.60703395007916   -7.93474614516905   -4.34812616763573
C         3.22073249216853   -7.36284858400095   -3.04587781946773
H         3.85153493372059   -8.20145699929556   -3.29816582113855
C         3.63519723852823   -6.40464249487860   -2.13345007726893
H         4.59254783267759   -6.47071177070738   -1.64238946514978
C         2.79500639161048   -5.34270147097440   -1.85311970147696
H         3.08940947368212   -4.57788118144949   -1.14688650626356

