25
CSD_code = MEXWAP | q = 0 | S = 0 | Stoichiometry = C9H12AuCl2N | MND = 4
Au        9.75929967547877    0.01109536718151   11.08032818159924
Cl        9.82238319992117   -2.07345198295957   10.29818556550026
Cl       10.63953341107174   -0.38343797736095   13.23425655093823
N         9.61049599458837    1.98799884643290   11.85594708357875
H         9.63511486475045    1.75143548707302   12.85253337184530
H        10.47864564796195    2.48404961217821   11.66657924217715
C         8.90936560744478    0.58218396471173    9.36072206035856
C         9.35983637769485    0.17061071715832    8.12302895317229
H        10.18459212401669   -0.51876577873956    8.04529447163529
C         8.73821596167862    0.63206581624964    6.97170426412458
H         9.09633652118897    0.30634886402060    6.00733102418149
C         7.66327301953972    1.49584066804050    7.06754312344770
H         7.16866428583250    1.85001248821890    6.17561022678471
C         7.21953743228865    1.90768523604311    8.31032990898171
H         6.37902726149308    2.58226964675111    8.38874646898888
C         7.83647116993984    1.45576204467692    9.47241832979936
C         7.37462877376932    1.95207743329518   10.81528908109278
H         7.14611864487594    1.10817501860648   11.47130927722697
H         6.46579951015135    2.54354600212858   10.69826302477419
C         8.44749743326437    2.82250697340799   11.48901779642808
H         8.01529657345988    3.24377680420659   12.40429984199098
C         8.89685784273146    3.95744570793878   10.57730020416358
H         9.38094027707535    3.56001576828781    9.68845059721744
H         9.59098922388981    4.61519613496496   11.09636992460433
H         8.04097916589293    4.54755713748793   10.26314142538920

