62
CSD_code = MEXXES | q = 0 | S = 0 | Stoichiometry = C21H33ClN6Zr | MND = 7
Zr        5.43354531341818    1.49370137531801    9.26498420932476
Cl        5.06254932785409    3.72122199572493    8.39288030550143
N         4.52073958168254    0.11614376622987   10.55869862650946
N         2.99087975714981    1.58526402930824    8.79691040417895
N         5.42790600451693    0.08879742772478    7.72661538633854
N         7.40539657064521    1.97095016185116    7.41678099590801
N         7.24631557095474    1.16318192929525   10.20423481313633
N         5.53103447882127    3.10790137588191   11.38523516132865
C         4.96217389095626   -0.60106713529221   11.63352458336022
H         5.98365974811458   -0.53107572297193   11.97045115474052
C         3.95476555996723   -1.38749670363342   12.13758537661555
H         4.01517491369757   -2.05025779539391   12.97944533366091
C         2.82614081295844   -1.16317185741351   11.32523478597938
H         1.85967054876973   -1.62124669016606   11.42186942170738
C         3.21215624431863   -0.24898465804124   10.37061571870035
C         2.48744085055507    0.24963817036278    9.15726342659920
H         1.39845951517194    0.27016409847052    9.33334479732177
H         2.67385967764906   -0.42802407265688    8.31232677383518
C         2.37394623884679    2.55859654457435    9.70234161057307
H         2.61549281240210    2.28666525590292   10.73397300450061
H         1.27849394573403    2.55976865017800    9.58934914495841
H         2.74406720910698    3.56103923388149    9.48430975654669
C         2.61771756040215    1.89693773763775    7.41444339944117
H         3.11552793356118    1.20257813041372    6.73302476216776
H         2.92581177360443    2.91406793065264    7.16901733654712
H         1.53044051292937    1.81830077392350    7.26991234316116
C         4.97825074344494   -1.19853552359439    7.64868389002977
H         4.66272780159120   -1.72979891761542    8.53356083296624
C         5.04752892039232   -1.65008624060399    6.35207487972988
H         4.76019205241626   -2.61914672082835    5.99095764793781
C         5.58735273164962   -0.59642060802116    5.58646008011740
H         5.78913995794415   -0.60533416588782    4.53170582136732
C         5.80642154275805    0.44754721854210    6.45793958924592
C         6.50612107852507    1.76018152642863    6.26486506363845
H         7.07237886321203    1.74353946376330    5.31717508818563
H         5.79636906985069    2.59710538424685    6.21587225304417
C         8.46435958941373    0.96006648261276    7.36759958418422
H         8.02921917119393   -0.03869472085135    7.39978684440516
H         9.13233065182290    1.08449918992357    8.21920806762859
H         9.05233482823098    1.05516700161639    6.44152975302289
C         8.04445275878022    3.28320522935763    7.33950780520924
H         7.29489872026388    4.07244082017806    7.32172016459354
H         8.66525307746173    3.37493533389581    6.43545673075269
H         8.68391211070261    3.41887482806466    8.21340373965047
C         8.06127360816805    0.08222589704247   10.35288987394273
H         7.85702625865654   -0.83566629680102    9.82218015537208
C         9.08000629546146    0.37198382872841   11.23103833033361
H         9.87569063829843   -0.28073974600227   11.53553704100930
C         8.87171982976218    1.69679158401243   11.66588843102699
H         9.47686925186391    2.24753139234065   12.36180391987650
C         7.74159992743671    2.14675078014978   11.01652084623957
C         6.96314915050090    3.41947204957400   11.15175210574002
H         7.02686689950825    4.02652536693311   10.23616007368491
H         7.36983893406706    4.01477688844089   11.98714853065184
C         5.40209078878344    2.41316560761696   12.67072034107033
H         6.08372001489946    1.56550331934699   12.70705859022145
H         4.38133167728075    2.04964006837797   12.79945537989231
H         5.64552187232227    3.08576377107822   13.50679410609573
C         4.79421813021201    4.36968511752538   11.49753427348216
H         4.82637994757355    4.91416952470770   10.55541900953133
H         5.22526732576924    5.00754632784232   12.28345809321362
H         3.75501942601348    4.16983498609398   11.75766043026143

