60
CSD_code = MEXXUK | q = 0 | S = 0 | Stoichiometry = C34H21O3PRu | MND = 6
Ru        1.42739610762812    7.90130616026181    2.87402200913288
P        -0.03577334776503    6.61515484536072    5.09816749303408
C         2.71020559191329    9.25079110519518    2.77749733409294
O         3.49431008661831   10.08388822197275    2.78453514321689
C         0.26335170423834    8.61781312926450    1.57284779165565
O        -0.46054498963638    9.09888267227708    0.83237985980618
C         2.35060592183520    6.64711096948237    1.80815555871536
O         2.94957344634044    5.87664000244792    1.21547053808485
C        -1.09571544998071    5.61592071675597    6.16225364213004
C        -1.93242197942010    4.65385769653081    5.60741024738663
H        -1.94664770199804    4.50636977932835    4.53716963682974
C        -2.73941132778110    3.89390310952116    6.43524978147381
H        -3.39076261498093    3.14525523197401    6.00987731891278
C        -2.71209955011999    4.09249818579003    7.80642477814686
H        -3.34366353828021    3.49744492393043    8.44907714866700
C        -1.87736657137783    5.05212124948759    8.35896866642708
H        -1.85977648911583    5.20286997583034    9.42840101956968
C        -1.06653674718291    5.81676372339622    7.54105382380736
H        -0.41031305276925    6.56841500085627    7.95966080243086
C        -0.10540221416713    6.33149032301139    3.32890412033392
C        -1.45510926423775    6.54044382902071    2.71767744809594
C        -2.35669760886096    7.58826812605267    2.84486551039894
H        -2.15494165219517    8.42582937182583    3.49814344255025
C        -3.52927495119676    7.55983256521612    2.11045743549575
H        -4.23255090036233    8.37402993185325    2.20706079713288
C        -3.81405898826818    6.50722792541451    1.24933680837576
H        -4.73193060457964    6.51728148816877    0.68007462646135
C        -2.93584156151936    5.44828525239877    1.12309483659754
H        -3.15643086655815    4.62303346366636    0.46220081756534
C        -1.76427646268981    5.45924170456917    1.86664222328634
C         0.23943860180335    4.93780212237973    2.90810911459442
C         1.30722308031191    4.12266977146716    3.25774397678074
H         2.05084123807292    4.44826676685937    3.97201638744852
C         1.42211315919620    2.87537864129872    2.66932251544758
H         2.25192884758633    2.23864103470578    2.93914417769000
C         0.49338252615796    2.43142199543142    1.73601826424843
H         0.61455450992395    1.45762497270372    1.28469927460822
C        -0.58426782860552    3.22303737270726    1.38870762485274
H        -1.31426848296558    2.87908230663913    0.67087198953666
C        -0.71765483895902    4.46916672311093    1.98442880664387
C        -0.33635759303382    8.37760942184121    5.26598787593333
C         0.38754020476193    9.07804554099399    4.27912006008545
C         0.24834293662366   10.46850647746555    4.33314754156239
H         0.76368536622133   11.08989899607706    3.60955125743353
C        -0.54329222962806   11.09228674025217    5.28564981960507
H        -0.62087571930690   12.17041500404214    5.28803335252677
C        -1.24643378082421   10.35620551195428    6.22661833087964
H        -1.87155472385531   10.85312799696691    6.95382053008074
C        -1.14426402005275    8.97804052986963    6.22211509545671
H        -1.69835339490893    8.37810893904840    6.93172663423596
C         1.70759504748979    6.45173260715454    5.49663970154840
C         2.48160839725184    7.10427041006612    4.51508127750853
C         3.86103175203756    7.06576448720196    4.74198540485467
H         4.53629202940370    7.53618284444312    4.03626507368831
C         4.40742481191637    6.43162266190804    5.84756529242076
H         5.48005854083041    6.42777379767749    5.98115971083706
C         3.60236706712054    5.79249784949249    6.77767971962356
H         4.04115985559211    5.28968048795795    7.62689867836859
C         2.23126040805594    5.80031252429487    6.60520583411356
H         1.58087980825342    5.29215478312852    7.30470601757153

