21
CSD_code = MEXZEW | q = 0 | S = 0 | Stoichiometry = C6H10Br2N2Pt | MND = 4
Pt        3.32177854243251    6.00865173697198    2.04169163751638
Br        2.05298331636726    4.20617181946100    2.94309110737070
Br        5.07267074295464    5.83414199423123    3.65338323906450
N         1.86965790127537    6.23486951649683    0.63793539497274
N         4.48100567488489    7.72696434481686    1.23733588324723
C        -0.16427779527785    7.31027580759418    0.02595557675196
C         0.65842737949483    5.47664670877903   -1.25316783212047
C         2.78198154091249    4.33016106085827   -0.55953694624473
C        -0.30893155017095    6.44272780536182   -1.04844347836030
C         1.74372127578722    5.38658498700440   -0.38765029425398
C         0.93882175068910    7.16738237264078    0.84155009377269
H        -0.89473826522719    8.07532218631879    0.23203180834116
H         0.57842263844993    4.77800648228065   -2.07094510919870
H         2.42795409746594    3.40576348917938   -0.10127780360958
H         2.97884088257601    4.13964565250308   -1.61149879470305
H         3.71120621593215    4.61278524653432   -0.05418322430265
H        -1.16131134994526    6.51625640765811   -1.70561584363296
H         1.08331407887205    7.81327524060278    1.70001719329156
H         5.42849741403440    7.37253216848588    1.11401891611995
H         4.18102055532618    8.19678726444178    0.38819287845323
H         4.51625495316769    8.39894770778692    2.00211559752076

