66
CSD_code = MEYJOP | q = 1 | S = 0 | Stoichiometry = C27H33ClCuN4(1+) | MND = 5
Cu        0.97322792845524    3.60139359781629    1.54549506036763
Cl       -0.22435520149641    3.86659318750165   -0.22877211308739
N         2.47834036452797    3.27670965372791    3.02915544501421
N         1.19063638947129    5.46363524926902    1.88773466666940
N         1.56487733530491    1.96837618096714    0.89685280269210
N        -0.23578476128717    3.70184916838496    3.18160221461487
C         3.09847618949017    4.59912628146541    3.06640593496784
H         3.74845317133969    4.71086993884747    3.94288244537122
H         3.70440803895459    4.71534698353229    2.16514420527280
C         2.00306478084679    5.65956314621440    3.05278142503891
H         1.39249155528377    5.62035586206090    3.96894134056829
H         2.44661344398294    6.66108799333416    2.99343485956267
C         0.16831398395544    6.43912294254015    1.72579101754060
H        -0.23493269540318    6.78409893146795    2.68646229589047
H        -0.62852608210541    6.02833678458340    1.10371223065632
C         0.80341987244689    7.60109423251721    0.96794390221978
C         1.20246973843540    8.74179436305893    1.64646361843264
H         1.04339460450416    8.83046070954716    2.71205521926423
C         1.77393332162005    9.79296400719954    0.94746008767440
H         2.06310640205117   10.68905972104852    1.47502572689820
C         1.96850823290467    9.69417669993711   -0.41964951706439
H         2.42254689090881   10.51107622222205   -0.95913888264031
C         1.58185790803933    8.54730110009909   -1.09319392993478
H         1.72860769915606    8.46863458682435   -2.15937871243872
C         1.00557240904084    7.49670223047040   -0.40017712107617
H         0.70180038936239    6.59987647582043   -0.91789399611612
C         3.32536404608686    2.23429655501223    2.47193675259909
H         3.10171597838893    1.28250126542919    2.95625114372779
H         4.38705608809573    2.45857115731907    2.60739056433725
C         2.99033813423462    2.08457453258321    0.97532031189550
H         3.35476082311947    2.97042122921760    0.43456165036756
H         3.47634940233005    1.20366980406463    0.54376337524221
C         1.04388480702795    1.08607175118731   -0.10202336106145
H         1.43247854192800    1.31995093442573   -1.10202856244004
H        -0.04405807299867    1.17809442382151   -0.11868534571701
C         1.43073719176280   -0.33056650791183    0.28343434292993
C         0.86949758380696   -0.90759360304527    1.41528241858432
H         0.14739971265989   -0.35021426478088    1.99424005255133
C         1.21630642273170   -2.19473624904858    1.78534723292801
H         0.76951359353123   -2.64134460410750    2.66071306741168
C         2.13131624787975   -2.91010028943713    1.03049208934366
H         2.40197841770023   -3.91403008322119    1.31838722446898
C         2.69503518674541   -2.33646364433354   -0.09636864318148
H         3.40005110196613   -2.89329233041256   -0.69413404976519
C         2.35457399048287   -1.04500813553875   -0.46455334634697
H         2.79203312684957   -0.60637194790205   -1.34990685379569
C         1.77852893062160    2.92714025949033    4.26826599636244
H         1.84119125892558    3.76418357570652    4.96525805300398
H         2.23807853305634    2.05865171449970    4.74592768057390
C         0.30718722524541    2.63984511422861    3.97185344246332
H         0.19601464354946    1.65623437281584    3.48980345889757
H        -0.25460547988882    2.60242204050657    4.91581345172990
C        -1.59675236519368    3.51987176424677    2.82133892443070
H        -1.84685716924634    2.47872821336895    2.57248853620086
H        -1.83363080090369    4.16386937133708    1.97371494342063
C        -2.42250267784567    3.97807718864524    4.02163776352381
C        -2.67781442428186    5.32616992076210    4.21649538852606
H        -2.29954279330787    6.05122861955132    3.51206649993894
C        -3.43577795538210    5.73867144153339    5.29937074454203
H        -3.64219792565260    6.78853493046587    5.43956699081210
C        -3.92471970412877    4.80601144515666    6.19841347430757
H        -4.50710340633979    5.12730087732005    7.04801555942379
C        -3.66533381308617    3.45956723451958    6.00660808021632
H        -4.05804218626009    2.72609184897849    6.69396498518239
C        -2.90391531060187    3.04406171762095    4.92638124322493
H        -2.71915881338626    1.98990210544889    4.77665449277865

