140
CSD_code = MEYKOT | q = 0 | S = 0 | Stoichiometry = C77H57ClF2N2Pd | MND = 4
Pd        2.43605694803129    2.40840663177342    8.43557543447637
Cl        4.29642709751759    1.24501225572179    8.63853100919303
F         2.88920390246714   -4.45554674255480    9.64667849140144
F        -0.18120328627604    8.68732481896336    7.47604951559779
N         1.09324237728908    0.68525852152568    8.97695813143518
C         3.53150165506588    3.88756451993315    7.51867667057324
H         4.48485690798067    4.02336229582508    8.03121858822950
H         3.00955122889999    4.84884466510365    7.48391941243537
H         3.74305526052256    3.54957630229645    6.49572220201879
C        -0.28489816350141    2.60819488160271    8.82952059274529
C         2.00920189447208   -1.02825241719033   10.36486390752103
C        -1.67904615391621    2.91201974949109    9.11235723631135
C         1.03761755221322    5.16356582712758   10.62712615396655
H         0.59406081199021    4.17360125186752   10.79284434810080
C        -0.09809171375788    1.16639848885002    9.01717991370263
C         0.50378614085382    4.71759915088373    8.21104991873588
C         0.79997873604853   -1.14919688105645    6.74318306864260
H         0.29190653883778   -0.18563940157445    6.87822586484331
C         2.48798130292293   -2.31333465667031   10.53964841956386
H         2.92972170728697   -2.61977924734100   11.47460936235029
N         0.71595690049345    3.34847953798348    8.44996997460537
C         1.35198726549208   -1.57442511416373    8.08421572478728
C         0.37410634817003    6.98406653748258    9.00055989164494
H         0.42851446976531    7.71601853169699    9.79106628980169
C        -2.44135493367690    4.05409818642838    9.19315662619580
H        -2.02485733445295    5.03390263532383    9.01574293352199
C         0.22335682178907    5.14028664576465    6.90460812172442
C        -0.00590611532696    6.48610591287568    6.66432066035907
H        -0.22868852323484    6.84038724097513    5.67042591852696
C         0.60091552624103    5.64148254301559    9.25967518913640
C         2.41733862584468   -3.19988072994543    9.48178653399265
C         2.00988481992394    0.00710252643660   11.46665663196822
H         2.29128480448179    0.96017488136513   10.98336179307255
C         1.43979111369021   -0.65679260602552    9.13794915532810
C         0.06027795577660    7.38034991416657    7.71474077516137
C         1.99297452552668   -0.92493759472592    5.83229014667321
C        -2.30615026417980    1.66653994887641    9.36450988902730
C        -0.22724709683076   -2.08378857208830    6.14362576423838
C        -1.40526927159559    0.58011805992700    9.29338498039359
C         3.05984230523118   -0.27552937641510   12.51542140512434
C        -3.66125498566785    1.52387557089521    9.66774548920649
C         0.60022135545394    0.13553707062686   11.99869954309369
C        -4.41207137928974    2.71855715645100    9.73959213334096
H        -5.46487782390355    2.67276887958359    9.97649027828694
C         2.75424754809368   -0.61871859842436   13.82346498405828
H         1.72355057773340   -0.68940074333376   14.14034312072380
C        -1.87417257695401   -0.68946023955274    9.51347592423312
H        -1.22242934453125   -1.54783304486554    9.48083869710999
C         1.86694875768767   -2.85014712968889    8.26586404443388
H         1.84259117717560   -3.57197740578805    7.46560899452010
C         2.54602465387613    5.00574728049766   10.60930878689804
C         0.51320319319491    6.05981267897277   11.72853331965344
C        -2.32287085754899    3.92628035819100    6.12707662888020
H        -2.36506141264433    4.99886701730685    6.25173730303948
C        -0.89449144075034   -3.04826811830722    6.88571934499732
H        -0.65259616336955   -3.19488607762124    7.92776939506621
C         0.17808281909412    4.10955441628206    5.79659722340005
H         1.01854819232019    3.41568131591033    5.97715349384619
C        -1.10274959536147    3.31085646350865    5.87458890815431
C        -0.57381598911714   -1.91853636327783    4.80532207631015
H        -0.07215110693081   -1.16429631414532    4.21547537194224
C         3.13189101945087    3.82327545818609   11.05737378942049
H         2.51431039847177    3.04331453659806   11.49061291195851
C         2.57778568351927    0.33243049625796    5.75272204070090
H         2.15842724601334    1.17151700213615    6.32182003269612
C        -3.80470158009147    3.92993814060752    9.51542518199050
H        -4.39228081375173    4.83426381938443    9.58229919698050
C        -4.11529059949145    0.20197994043564    9.87501324504038
H        -5.15722245384988    0.02974395935145   10.10277365818853
C        -1.07308832578763    1.93471092123782    5.69218010178308
H        -0.13529394205026    1.45612715174397    5.44746994055099
C         5.32067082668638    4.71485884698020   10.64243402540664
H         6.39460126194292    4.60579809573288   10.65605102606711
C         0.00077789285763    1.37880206423568   12.14572189370240
H         0.56195542032566    2.27469200746439   11.92030833090567
C        -0.14280299814336   -0.99794599147130   12.31253175516309
H         0.30750776673568   -1.97442094727448   12.20629596777389
C         0.40668852416889    4.74196964877681    4.44009348983613
C         4.51300301457527    3.68086882994632   11.08200708212583
H         4.95017280464820    2.76461641207130   11.44970571952512
C         5.40362753459384   -0.42963570683764   13.03945836842462
H         6.43550346340348   -0.35395845645971   12.72959580868108
C        -3.24257125470505   -0.85493049783542    9.79257084068108
H        -3.61128443123105   -1.85697881265732    9.95503470511085
C         4.74645661305162    5.88897338520544   10.18309177742339
H         5.37290882427989    6.69819784402723    9.83692109323036
C         1.68842254135365    5.18351479420869    4.12836149549442
H         2.48288411539531    5.05504083310460    4.84933068556570
C         1.31554934679082    6.93178066514754   12.44951315149979
H         2.37530317672684    6.98057934930567   12.24995422571616
C        -2.22685582138529    1.17951151634292    5.80510779046327
H        -2.18509578584198    0.10736456423552    5.67645065280828
C         3.37048602632516    6.03257153272013   10.16026465201166
H         2.93440845601141    6.94901213544029    9.78907304197992
C        -1.39420182719302    6.80768240165469   13.00040150656554
H        -2.45184847321800    6.75156040063161   13.21327563886612
C         3.76897251122756   -0.86868863640947   14.73328019253451
H         3.52006900477126   -1.13626010788276   15.75012100716052
C        -0.84599726858039    6.00103902741424   12.02140650687915
H        -1.47864965651038    5.31457364946771   11.47414824857645
C         5.09328108866151   -0.77794131196578   14.34456178800337
H         5.88151180223091   -0.97595668359940   15.05600549261891
C        -1.54475500650796   -2.71000901212083    4.22097511999880
H        -1.79565495480284   -2.56884800910764    3.17987856004421
C         2.55096309638994   -1.97183127952263    5.10941693517172
H         2.10227010501603   -2.95366312164950    5.15205407529808
C         4.39417537750875   -0.17775538132372   12.13038471383151
H         4.63115144752229    0.09339983093940   11.11077186498733
C         3.66919992934846   -1.76357264413262    4.32305545816341
H         4.09246253112214   -2.58699092001088    3.76661109760166
C        -1.86830152042019   -3.84095459879658    6.30182184068593
H        -2.37196829594576   -4.59035973341410    6.89500714873744
C         4.24827127274896   -0.50800673675181    4.25256369915502
H         5.12518136139264   -0.34833015806434    3.64322827245652
C         1.94998291517940    5.78776141397021    2.91341799764737
H         2.94973082758499    6.12729707794456    2.68633874759045
C        -2.19534682636216   -3.67791998588057    4.96794790410600
H        -2.95262907236337   -4.29887832839839    4.51306584314502
C        -0.60699041891610    4.91141104402770    3.50820241405823
H        -1.60767758096464    4.56981855692519    3.72841756554320
C        -3.48132857581441    3.17545526096372    6.22179848997743
H        -4.42325789739458    3.66676737743038    6.41676178634764
C        -0.58781222374306    7.68344114311721   13.70825540118462
H        -1.01350105882738    8.31555439244576   14.47313380662312
C        -1.44840167628267   -0.88602377154208   12.75434587623139
H        -2.01015690174319   -1.77627777943538   12.99677954207616
C        -0.34390997775286    5.51484328200228    2.28950175287758
H        -1.14279863851035    5.64067013471899    1.57336264300137
C        -2.03873493386769    0.36013224933242   12.88195148743321
H        -3.06186794439859    0.44586227084262   13.21611240057266
C         3.69950927746233    0.54047262482486    4.96920915399626
H         4.14813387836046    1.52203953080015    4.92515797716488
C         0.93212029556528    5.95642623765332    1.98909996789451
H         1.13387809462094    6.42830393344828    1.03907503767476
C        -1.30827741572593    1.49463137300034   12.57882720481748
H        -1.75636859643542    2.47310326642942   12.67770649921538
C        -3.43374276955817    1.79965873775046    6.07932441444422
H        -4.33477296134838    1.21211878746332    6.17297650655679
C         0.76665669249087    7.73835374511812   13.43280435495202
H         1.40353272660230    8.41345361442766   13.98517667088621

