106
CSD_code = MEYQIT | q = 0 | S = 0 | Stoichiometry = C42H58BN4Sc | MND = 7
Sc       11.16238434055849   -0.05005066029324    1.66827277008238
H         9.28028075904761    2.64949113149784    2.26079970224573
H         9.28290334161106    0.76238419433336    1.51078835268523
H        10.55880984588066    1.30274091504123    3.08582365158244
N        13.29052398502816    0.23457918016489    2.17577826999776
N        12.49472080469424    1.21615429804880    0.39062425530452
N        10.69155854307310   -2.07057224944046    2.50758310686069
N        10.63724905234514   -1.73518734431844    0.34621547088392
C        13.59596761539387    0.96788827506485    1.10021550487024
C        15.05253819615198    1.35420412771878    0.74188047275932
C        15.25583259294317    1.94823624683587   -0.66048688043473
H        14.82940120491668    1.30954518149473   -1.42839355396530
H        16.32795603893009    2.01874012162931   -0.84656144540820
H        14.84672890338687    2.94887518437742   -0.73939627176515
C        15.92674562710302    0.08193015945283    0.72634797194751
H        15.84828585572078   -0.53698948096630    1.61088834796704
H        16.97167474006656    0.36661785386310    0.60773552450212
H        15.64382413830653   -0.53448302210511   -0.12443827363027
C        15.59278424006726    2.40936137033791    1.72220569857042
H        14.92900153829013    3.27206562108100    1.73292974309939
H        16.57587924677189    2.74086675359711    1.38964338700187
H        15.69198713272031    2.04442467191370    2.73823623466087
C        14.11693883645683   -0.00232380002167    3.34614652105427
H        15.18145223725398    0.21453430092055    3.18477679750852
C        13.64814834487503    0.95245797868714    4.46002306081526
H        13.65868742319847    1.97153662501494    4.07696838868916
H        14.30869131438493    0.90677987336212    5.32302175619081
H        12.62985553256440    0.71517391465097    4.76599156577526
C        14.04344220626988   -1.46892286368276    3.73498133923097
C        13.96688690453001   -2.42822250488459    2.72890665868438
H        13.91571778997665   -2.10607637919301    1.69666117094092
C        13.97982146956634   -3.77750788378609    3.03188915868159
H        13.95893406873725   -4.50863287792161    2.23598461738880
C        14.03708277110400   -4.19697040681106    4.34988800577904
H        14.03778939242786   -5.25082614291283    4.58783364869981
C        14.10162525753173   -3.25305716465392    5.35892321521019
H        14.14884061529184   -3.56773568071235    6.39142750212326
C        14.11867206418478   -1.90260815156066    5.05406537548099
H        14.19216869817210   -1.19074369450122    5.86167770525874
C        12.32434475869881    2.24289632629887   -0.62286988922645
H        12.92200032925665    2.05144008683634   -1.52488768217510
C        10.85362769241985    2.23755274033732   -1.07008968226092
H        10.61225299711285    1.27047959770740   -1.50651310364274
H        10.69332798087934    3.01231487032428   -1.81815819292897
H        10.20575562577670    2.43234173415513   -0.21432554876093
C        12.61199252802285    3.63745487807752   -0.09873096380161
C        12.38532159594314    3.95333739132584    1.23477029683476
H        12.02788611267825    3.18204477138160    1.90556306605816
C        12.60749151444211    5.23771174500847    1.70023230951638
H        12.42845141641500    5.46870001448735    2.74034572167634
C        13.05175683840017    6.22552561185615    0.83771429841302
H        13.22731327704129    7.22706453044842    1.20187262308423
C        13.26324566210070    5.92416789558847   -0.49700979644486
H        13.60180487987661    6.69139119958233   -1.17829209763852
C        13.04130176727974    4.63992404711235   -0.96137457998562
H        13.20432525926424    4.41088213550148   -2.00624177255184
C        10.54308186788292   -2.65068583715695    1.31628796241659
C        10.38067889139207   -4.16195250717601    1.02023813886627
C        10.58214492641255   -5.09870914509271    2.22134130183951
H        11.52187026008854   -4.89881605025694    2.72774584940213
H        10.61772771219718   -6.12311450561820    1.84935497761691
H         9.76000308520996   -5.03736800607409    2.92502533510434
C        11.47608098470316   -4.60710625979220    0.02727215674631
H        11.58604932155848   -3.97606521471194   -0.84511432574920
H        11.26107674931775   -5.61917361544932   -0.31378478729731
H        12.43656822567990   -4.61786887626982    0.53826196139340
C         8.96813777044520   -4.46300209223155    0.49023553472614
H         8.22634869982420   -4.09186865088370    1.19512413816553
H         8.83972617742455   -5.54088396119720    0.39767792933009
H         8.76664539709116   -4.02052604884252   -0.47881182368633
C        10.31226139835920   -2.62163268701757    3.79726343857651
H        10.92994888622305   -3.48256378939257    4.08847314703055
C        10.54204190697705   -1.54234161740747    4.86748711070324
H        11.59774826940095   -1.28041493474074    4.89608942507179
H        10.24595818208021   -1.92295840418274    5.84373351321788
H         9.94544923994740   -0.65894906184607    4.63622652433706
C         8.84270123093345   -2.99262425617024    3.86694219844513
C         7.89958414424448   -2.28842709116828    3.12923350971727
H         8.22990696638065   -1.48851055125695    2.47832543769658
C         6.55471884482670   -2.60043294425571    3.22759035155808
H         5.83245932933309   -2.04541408495186    2.64655513408917
C         6.13348106577350   -3.61521593352299    4.07020837439043
H         5.08410593415943   -3.85973694757165    4.14486091523937
C         7.06463461317870   -4.31052001763473    4.82286271945070
H         6.74339493237956   -5.09817187433586    5.48908529329984
C         8.40887381668093   -3.99808233822338    4.72378115001748
H         9.13171271156475   -4.54164115845136    5.31782234956195
C        10.23997348411245   -1.88175479239658   -1.04294686397228
H        10.11852912807923   -2.92696826922678   -1.35747063814897
C         8.85984898068647   -1.21926485407187   -1.21410652194894
H         8.17533326466992   -1.63810116949465   -0.47830113458913
H         8.45137440336980   -1.40804173254443   -2.20434541552003
H         8.92519925621964   -0.14514386695588   -1.04491348279960
C        11.30895377774483   -1.29412703785690   -1.94813340335391
C        12.64571023795112   -1.41060495061445   -1.57703826656907
H        12.89108874346640   -1.87602885940699   -0.63073726545781
C        13.65511784286783   -0.96196240781990   -2.40928478920554
H        14.68879964772177   -1.09465057081811   -2.12244875344037
C        13.34870316106178   -0.35881630052541   -3.61691426460287
H        14.13653985081672   -0.00014708344274   -4.26329489053520
C        12.02362466306566   -0.22761933555267   -3.99161177662040
H        11.77179097590670    0.23907361413432   -4.93289611827996
C        11.01423435029645   -0.70271923521506   -3.17186046045559
H         9.99120230053478   -0.60578908179818   -3.50102328514816
B         9.37539007576491    1.51002883940033    2.57508643077914
H         8.54977140884275    1.17790830973313    3.35878242509325

