77
CSD_code = MEYSOY | q = 0 | S = 0 | Stoichiometry = C32H34IO4P3S2W | MND = 7
W         4.51054139897881    8.03956495092031    0.64433554546891
I         4.08456245101214    5.92223409464533    2.36069437556421
C         5.60648708982934    9.25041622027701   -0.45694965484103
O         6.43299436801386    9.80680523372399   -1.09382096977835
C         4.00357625506092    9.48825576571119   -0.59269864410538
O         3.53660200438896   10.29231452339657   -1.32615910470247
S         2.96340234422995    6.70696181066439   -1.01388280854882
P         4.72210572347091    5.92014807400173   -1.60215360411732
S         6.28460168930700    6.41204328725038   -0.42423256936897
O         4.62308521081285    4.36088174679770   -1.84776101956230
C         4.37408309628098    3.48806061940724   -0.73713857781752
H         3.41905955791517    3.75671495732617   -0.27144871640589
H         5.16942202304171    3.61172976958091    0.00656894048816
O         5.01704955505987    6.28998236936458   -3.12057031732115
C         5.16202233260878    7.65543438413653   -3.51291206065376
H         4.28712143629486    8.22848832004236   -3.17639821465475
H         6.06221510367421    8.07336555457980   -3.04580356696269
C         4.33776499020284    2.06724933905821   -1.26070562763109
H         3.54818401960845    1.96228698462100   -1.99999391206628
H         4.15072111208229    1.38666337853181   -0.43544673195832
H         5.28730712992586    1.81684460351475   -1.72601826683072
C         5.27471942429709    7.69918169571463   -5.02350525525066
H         6.13416564737373    7.11808167543592   -5.34714466687901
H         5.39348312097672    8.72924070574459   -5.34720820945025
H         4.37909951583951    7.28058634466639   -5.47501701154605
P         5.95662837435541    8.88608671964953    2.38755138207774
C         5.14371991616577    8.90302594918287    4.06408973888253
H         5.39622503087247    7.96758642107263    4.56922075533153
H         5.58305008232923    9.72471954099055    4.63881771905128
C         3.62049394530589    9.04184429483346    3.95722174037499
H         3.25896985545517    9.91186546272155    4.51213737631545
H         3.12839087606676    8.15760548492092    4.37590888921338
P         2.99558023012076    9.16816684837345    2.20386774879957
C         6.63998008097472   10.57350222907630    2.32346414208180
C         7.69657189000636   10.89585457362187    3.17353850810468
H         8.10833032596633   10.13511457958717    3.82462300662372
C         8.22252944440143   12.17325111909833    3.17102347423432
H         9.04668923813130   12.41657029155306    3.82533261036128
C         7.69597898880878   13.13928826563001    2.32683339892041
H         8.11212080129839   14.13567904959083    2.32252652843961
C         6.63925264522136   12.82629341852786    1.48939889915063
H         6.22322703738285   13.57554670953881    0.83275883779020
C         6.11022783415752   11.54715606397189    1.48756355713282
H         5.27992453139780   11.30899254970188    0.83607727217743
C         7.46253265843868    7.88696362577254    2.53370676080121
C         7.62574182344226    6.81277525651816    3.40079098776429
H         6.87091793839327    6.56597060366841    4.13295064765094
C         8.76211429807326    6.02698815723469    3.31259676188082
H         8.88252327990147    5.19186614337146    3.98636756473344
C         9.72828524912224    6.29609396131230    2.35915101948915
H        10.60793287030763    5.67348250877095    2.29117779425106
C         9.55969485987398    7.35443770016580    1.47905555594917
H        10.30367776595549    7.55636118985699    0.72296014143369
C         8.42977652438147    8.14222972960523    1.55893038073503
H         8.28009005817721    8.96016256398415    0.86436129294927
C         3.37537759353154   11.94386823738567    2.67612194541132
H         4.07716933766034   11.69050763825908    3.45851856621145
C         3.14121081858615   13.27468097148505    2.37653879590150
H         3.65265028291087   14.04477008687648    2.93565369271158
C         2.26419627596605   13.61741005186719    1.36174378584436
H         2.08934219960130   14.65722257975066    1.12872826058287
C         1.61257958373206   12.62705367956445    0.64252731869631
H         0.93208326127059   12.89279329275508   -0.15220662965570
C         1.83999124361822   11.29767557839684    0.93851161308893
H         1.33960084222391   10.51492604642161    0.38217350431270
C         2.72259273116751   10.94764628134526    1.95920574519564
C         1.27171346457877    8.62523120751662    2.42851757181006
C         0.47638537527009    9.24949953979274    3.38808396596539
H         0.88454283654009   10.05229149711761    3.98715807351068
C        -0.83350263756856    8.84856590853403    3.56153615186036
H        -1.44871512031308    9.33123490152220    4.30674126400053
C        -1.35924117859459    7.83091682321035    2.77936759110653
H        -2.38359932424420    7.51967096987262    2.92024844221937
C        -0.57551889271541    7.22021590721068    1.81622739748051
H        -0.98387414111106    6.43261631311998    1.20153187010507
C         0.73845052867414    7.61756602480248    1.63672728191902
H         1.34630986452787    7.14641904215556    0.87580994800852

