74
CSD_code = MEYSUE | q = 0 | S = 0 | Stoichiometry = C31H32IO4P3S2W | MND = 7
W        10.32828703521791    5.55922827501951    4.54850327926074
I         9.97910195185876    7.11099784657233    6.82338369241801
C         8.70111243529286    6.31728537740595    3.76140119626313
O         7.78184373971257    6.75265168204626    3.21386542221192
C        10.69958982324122    5.46486846239319    2.61126881297188
O        10.82908261289256    5.40713199434565    1.45996234367396
P        10.39267706033466    3.27589682323111    3.64577410242841
C         9.89174423852590    2.41953102854151    5.20829981575233
H         9.34808223350530    1.47652000831525    5.11670930355051
H        10.77455988068337    2.29040825088017    5.84561061081927
P         9.00128306552688    3.92137720168679    5.84197992105050
C         9.12004082719555    2.65183480731282    2.50624044686258
C         8.13220201579720    3.47595546591890    1.98732035016180
H         8.14751772405755    4.53313612372047    2.20618372981253
C         7.13277045871620    2.93874094999874    1.19388669061967
H         6.36646420698335    3.58361606474127    0.79169959623499
C         7.11540080086344    1.58141938707876    0.92308393478767
H         6.33375538316329    1.16333865110159    0.30654005797763
C         8.10231577338819    0.75491156367089    1.43988396047100
H         8.08963268950408   -0.30394486273532    1.22637374726454
C         9.10306048525297    1.28568813295986    2.22981052930171
H         9.88114153356245    0.64876077762526    2.63303227858482
C        11.87858547411456    2.46174603402103    2.99216915223585
C        12.87642660587889    1.95714160973108    3.82264452292798
H        12.74325686008115    1.95284770017077    4.89463626494093
C        14.04984203325587    1.47225337277761    3.27360060847672
H        14.82009434267469    1.08110738420045    3.92160072536744
C        14.24146766019823    1.49583134427525    1.90172700304789
H        15.16202340660309    1.12227323550123    1.47887384156626
C        13.25351532525233    2.00212064727902    1.07124618211845
H        13.40127191325858    2.02314772178763    0.00177136548344
C        12.07786561377834    2.48847617841054    1.61052404607523
H        11.30681111536359    2.89295899455242    0.96794145621005
C         8.95957504486639    3.66989272381532    7.64129731001553
C         7.78180879646843    3.46403243528433    8.34946297135892
H         6.83416574617115    3.43927998007884    7.83056916897474
C         7.83338443976352    3.29743424468399    9.72221624393462
H         6.91931251948889    3.13926925737352   10.27512172907359
C         9.04723813328509    3.34335390648151   10.38688103003048
H         9.07841121346790    3.22240769696544   11.45933084378392
C        10.22133192663042    3.55677217909866    9.68124223113017
H        11.16596087729954    3.60506349120605   10.20162882031480
C        10.18020853919172    3.72360812829402    8.31129163665875
H        11.09085337695681    3.91622726559572    7.75612438304703
C         7.27078785992528    3.76913338084822    5.32579918939874
C         6.68988426178662    2.65001638041333    4.74299885038961
H         7.25093279760531    1.73617848375385    4.61296611761160
C         5.37345198390745    2.70437871364102    4.31783942244121
H         4.92808311001042    1.83570319659504    3.85517685797540
C         4.63245937934458    3.86240415706193    4.47912120028737
H         3.60844386606192    3.89774451586542    4.13855130470961
C         5.20240422127960    4.97581607629269    5.07870595758929
H         4.62471335615116    5.87790532518331    5.21044174463999
C         6.51736521861034    4.93224870423267    5.49641045650274
H         6.97854129211003    5.79630945487758    5.96058154002560
S        11.92896485276849    7.56173641144814    3.79343255091393
P        13.29663741897545    6.37737628559410    4.71305389722913
S        12.57389615100850    4.73050538796572    5.60384775189921
O        14.23650122761698    7.19492643411340    5.68423859519370
C        13.74121746522201    7.74741154508046    6.91130826665641
H        12.98731330337403    8.50939152543725    6.68778895286242
H        13.27107873300329    6.95481629968767    7.50459358549151
C        14.91561505759429    8.35072982997503    7.65399485759971
H        15.65902468704367    7.58634931656039    7.86470530983340
H        14.56481810278755    8.77932034087013    8.58799728286017
H        15.37636641690150    9.12940836554015    7.05234107732300
C        14.15808058303719    5.44840882498319    2.41604618087373
H        13.56208479792712    6.16866043250628    1.84281957497100
H        13.57100169675036    4.52988457102394    2.54243024406489
C        15.46437912531108    5.14587290924417    1.70966020575043
H        16.04556124930845    6.05762612022697    1.60149140532155
H        15.25672824566467    4.73097782062255    0.72742932450642
H        16.04144315236799    4.42885716892827    2.28808643563288
O        14.46194344743519    6.00040247794322    3.69262650034610

