74
CSD_code = MEYZAU | q = 0 | S = 0 | Stoichiometry = C28H36AuF3N2O3S | MND = 2
Au        9.62415265790245    2.99664758703158    8.94059471605970
S         8.35765616004834    5.43743344903394    9.61087669995511
F         8.84651217876664    3.95481348807309   11.77415337758945
F         9.19049049240683    6.05595270336711   12.09138233109277
F         7.17627574819130    5.29023311648232   12.01834075127643
O         7.38866963919977    4.46291265437515    9.16865980612531
O         8.05255461322234    6.81382245783558    9.42378203609375
O         9.73890284320110    5.05954574419574    9.24697245991251
N         9.79069760863146    0.31925557504223    7.62580123502625
N         9.15481362653990    0.17937438071505    9.66396321477673
C         8.39096569666303    5.18449410074082   11.47767949258903
C         9.54120673901906    1.05175695506048    8.72130146800525
C         9.56678627215460   -1.00825925241337    7.87698419625803
H         9.70988776463999   -1.76108508719705    7.13003339586843
C         9.16382270456465   -1.09570250794898    9.16810717067531
H         8.88918152970533   -1.94148808409600    9.76324763057594
C         8.76062254956583    0.56742787459350   10.97586400246152
C         7.40569193771996    0.78336574325622   11.23271471283008
C         7.04467126660960    1.17153593543016   12.51570330881454
H         6.00625031454880    1.34843244155316   12.74617471639038
C         7.99902228227868    1.34608891455213   13.49850544409478
H         7.69963361889524    1.65510988915412   14.48857781204293
C         9.33525520562244    1.13713217883297   13.21838501599121
H        10.07051000308505    1.28799321825368   13.99267157222276
C         9.74295425824594    0.74782991521824   11.95030987347291
C        11.20861558604555    0.54383786248402   11.64833667558142
H        11.32141548764758    0.21850179737353   10.60912988734376
C        11.96530224171281    1.86426609962860   11.80539931894909
H        11.52288428187935    2.62720279915271   11.16704821825760
H        13.00760753038028    1.73378466956434   11.52342612719900
H        11.92623012728656    2.21285688974016   12.83336594082753
C        11.80632579283738   -0.54270966796979   12.54606618925429
H        11.77147900545752   -0.24745799323457   13.59087675228139
H        12.84493550620912   -0.71913436978566   12.27583265560507
H        11.25723144151057   -1.47569338708083   12.43538138179627
C        10.19613285829073    0.88048467351780    6.38332202746059
C         9.21348081080393    1.27532617963623    5.47382225960261
C         9.63085987716751    1.84807387751242    4.27958906359465
H         8.89749996774504    2.17188663192284    3.55833389707666
C        10.97433670757556    2.01852776093843    4.00667346622190
H        11.27972216775305    2.46915637678954    3.07433225286351
C        11.92926793940989    1.62312531946686    4.92362643972908
H        12.97378984770748    1.77270351549885    4.70102307486338
C        11.55839349371990    1.04755104871127    6.13120107411336
C        12.60233612922074    0.65375202961352    7.14888567500294
H        12.11782508361140    0.11771800602137    7.97109361711241
C        13.65323932534588   -0.27924708275730    6.54316063003492
H        13.17927154665127   -1.14972460784397    6.09426341332139
H        14.33620722043342   -0.61934345407017    7.31811438946183
H        14.23481165777006    0.22751339656365    5.77846301237846
C        13.25330479199210    1.91162971700564    7.72951951932365
H        13.77118216952978    2.46854754869856    6.95336797426898
H        13.97250731268150    1.63910345043082    8.49823839536719
H        12.49616941070265    2.55759383839553    8.17163575697897
C         7.74225358269991    1.10989282042642    5.77170554174130
H         7.62282320061566    0.53913473519449    6.69778468191432
C         7.03995422412910    0.32980138233814    4.65669247328849
H         7.03285754227792    0.89270166036645    3.72779285435130
H         6.00894740274721    0.13018500828299    4.93875555278557
H         7.53976182484441   -0.62055978344406    4.47918080529454
C         7.08598086291311    2.47786313348883    5.97715667928100
H         7.52094659174735    2.99560004544785    6.83040446989181
H         6.02236704609399    2.35302508907562    6.16483480098007
H         7.20996343190298    3.10093555811073    5.09529500434082
C         6.35150977317905    0.58970881556084   10.16924620575492
H         6.83707491604406    0.36312498253430    9.21482301541959
C         5.45405547473738   -0.59779289018638   10.53474478921925
H         4.91979155368847   -0.40513764503122   11.46124588241291
H         6.04418830065527   -1.50370536893077   10.66289506444946
H         4.72375735941922   -0.77027163403198    9.74757756700194
C         5.52342263874079    1.86044732227113    9.97126622779394
H         4.97332919953758    2.11480748703382   10.87284416272305
H         4.80588704400234    1.70702712533555    9.16808841611378
H         6.16007499909654    2.70175583958146    9.70675027865403

