109
CSD_code = MEZBEY | q = 0 | S = 0 | Stoichiometry = C58H44FeN2O2Si2 | MND = 4
Fe       -0.68783329942325    9.32840137619889    5.85247971725570
Si        1.39125669825570    8.37183009836326    8.58695691761841
O         0.73080181975859    8.03594952946371    6.14963045561483
N         0.50134649446820   10.62111947985046    5.22492869258013
C         1.82658228302450   10.48688211521962    5.12612754034867
H         2.19254885323555    9.47955828053691    5.24338251325633
C         2.68087980138238   11.54815511693095    4.93199640271289
H         3.74489300643720   11.37948181034711    4.88973847337923
C         2.14804702530626   12.82969613818659    4.79783599977530
H         2.79159115294491   13.68328090654454    4.65260819329818
C         0.77760628754775   12.97851434286014    4.84465749730559
H         0.32562014472023   13.95089453965348    4.73276110197540
C        -0.02939962944595   11.86135514720925    5.05235484366008
C        -0.33379116262931    5.86721954941951    5.96379060384587
C         0.30075283142862    6.90541454653831    6.67199928292302
C         0.60751060646673    6.75342373086309    8.03571352172136
C         0.28604781327628    5.59290339947406    8.70859477845652
H         0.52600361771682    5.49041886414927    9.75753758395801
C        -0.35609880895390    4.57045177159339    8.02255651396667
H        -0.62638367554764    3.65930207591065    8.53642686662375
C        -0.65440692944709    4.71212423368338    6.67897217840476
H        -1.16635489604479    3.91054605851070    6.16450228680710
C         3.11229958619535    8.80213223164795    7.91251437910000
C         3.68340701084799    8.12267809446451    6.84180969702491
H         3.12956993234612    7.32458663017550    6.37251164165380
C         4.93995612900407    8.45910069022233    6.36974205542816
H         5.36655930194879    7.91899888975230    5.53622885124959
C         5.65294416640989    9.48587336395575    6.96526185366411
H         6.63340433722142    9.75288212341497    6.59685294449319
C         5.10823043029296   10.16081211610109    8.04485340028326
H         5.66599216489243   10.95329688875639    8.52404049757159
C         3.85423083495513    9.81495613701335    8.51485818645904
H         3.44712311272611   10.32808781921967    9.37506719212708
C         1.63890349519310    8.29217377033593   10.47463013733712
C         2.64616478002872    7.48619871152176   10.99583673080123
H         3.26637144451631    6.92070636669312   10.31498840489790
C         2.86753781442617    7.40074550324792   12.35785608071121
H         3.65517198866041    6.76709679454491   12.74064127497640
C         2.07919678412418    8.12957695999947   13.23293506951701
H         2.24827785593301    8.06684372237260   14.29842063087757
C         1.07443548780367    8.94018365211178   12.73377386245556
H         0.45681641526344    9.51384199204070   13.41088165999660
C         0.86009828639042    9.01716202382124   11.36874390183481
H         0.07418011004464    9.65531817417384   10.98944492107027
C         0.13800517536829    9.78957041661230    8.34245128478119
C         0.52560200782030   11.12474168933445    8.23857135924100
H         1.57606569110006   11.36315084732963    8.15379534291452
C        -0.40563516638537   12.14846253223929    8.26628499615573
H        -0.08087303600973   13.17629686370857    8.18691016968865
C        -1.75121141048284   11.86035860321983    8.43479243721161
H        -2.47486505609789   12.66033046837840    8.49431621189606
C        -2.16298527413070   10.54270178629659    8.53008641711225
H        -3.20904346076175   10.31483081583513    8.67693783085541
C        -1.23013981006586    9.51504029338714    8.45585316832480
H        -1.55332268534094    8.48957840107904    8.59521621221660
C        -0.62039932659615    5.95746692515853    4.52949109880595
C        -1.15462177092291    7.11717010667785    3.91982908174008
O        -1.47786217429909    8.23557363576296    4.52925082045025
C        -1.46825680832850   11.86478490628937    5.16792532437612
N        -1.95198803652369   10.65379666717702    5.54410145976385
C        -3.27141774048041   10.51530590563923    5.67925658946787
H        -3.60496713433635    9.53105370426282    5.97081725878946
C        -4.16522723665225   11.53836951659643    5.45719924698925
H        -5.22283800453908   11.36493539982450    5.56865765615880
C        -3.67659203587604   12.78692760961402    5.07558031195928
H        -4.35127067143490   13.60800785758901    4.89022584999655
C        -2.31323756094631   12.94843684398243    4.93777336587335
H        -1.89840222602071   13.89824350568746    4.64187319642979
C        -1.51308154211209    7.07996882762946    2.55683725894255
Si       -2.35173447582081    8.69102363907042    2.06641392506985
C        -4.04277712207738    8.92862075179202    2.89900647728957
C        -4.49720026025457    8.06471911832230    3.88923309428581
H        -3.85176282520538    7.26905200459380    4.22936435471739
C        -5.75885609620832    8.20445787567711    4.44079355217049
H        -6.09395004189324    7.51793315801546    5.20618858233884
C        -6.59743682946260    9.21717257116544    4.00730267766149
H        -7.58444031435135    9.32717491887244    4.43436439160625
C        -6.16865124005655   10.07810993498865    3.01092449911093
H        -6.82338799221158   10.86158396556389    2.65533150872621
C        -4.90867351401460    9.92650793431553    2.46136468544376
H        -4.59829503165612   10.58278669244055    1.66120689746061
C        -2.80103178018819    8.53999366189990    0.21745034455887
C        -3.90569684728821    7.79007196384291   -0.17575442123291
H        -4.50538207763523    7.30409676479498    0.58127058396484
C        -4.24960895186485    7.65956329472206   -1.50873015878269
H        -5.11176638996562    7.07145354539382   -1.79088458403178
C        -3.48898940728583    8.28380506424880   -2.48329457470345
H        -3.75441979415625    8.18522692006247   -3.52629608390803
C        -2.38697379241985    9.03512319699329   -2.11250433081210
H        -1.78900451691326    9.52562951936189   -2.86800706907934
C        -2.05027270511087    9.15827853604874   -0.77601225775886
H        -1.18918807760952    9.74782372306318   -0.49460249669811
C        -1.15275171406826   10.15574991395594    2.14578945333339
C        -1.57726207974799   11.46988814502536    1.98401936362475
H        -2.63465241615058   11.68816195194245    1.96221505155317
C        -0.66978711126014   12.50263547226098    1.83422543683029
H        -1.02160160606880   13.51568850472971    1.69561355878614
C         0.68898663900797   12.23681754339398    1.83727898222657
H         1.40040727101743   13.03779190385797    1.69424438070794
C         1.13046863250555   10.93764654555393    2.02003818636058
H         2.18988768705516   10.72406482786692    2.02685763183238
C         0.21608628628274    9.91180301131402    2.17898042156036
H         0.56678620386906    8.89955747829993    2.31351363612549
C        -1.29003134179746    5.95626693883490    1.79086076376076
H        -1.56781862864011    5.95499814342090    0.74657079281068
C        -0.71166478475203    4.83639603070804    2.37280842367609
H        -0.51549331314942    3.95425174537073    1.78066615232967
C        -0.40346323989324    4.84220905795153    3.72042829695305
H         0.03417739075672    3.96018414385518    4.16688057887309

