115
CSD_code = MEZBOI | q = 0 | S = 0 | Stoichiometry = C56H52FeO4Si2 | MND = 4
Fe        6.83676649580569    1.35997685614258    5.44149992743638
Si        4.37881149018855    0.79909346926059    2.20368449884208
Si        8.74557591746318    0.42128427846517    9.00153407504852
O         5.33792976306343    0.45666446521930    4.90063003203813
O         8.07728087873479    0.27914816012596    6.45936035175990
O         8.71547514245238    2.68161563657125    5.27177127861455
O         5.40883373909299    3.30536650814314    5.58754331791821
C         6.48155206667638   -1.65547737100667    4.77909320485016
C         5.75237919828080   -0.58416653614986    4.20046438935771
C         5.39450819633991   -0.64883880080887    2.83863824524485
C         5.77919844713815   -1.72658123073508    2.06159550390706
H         5.49826324227236   -1.75440624645629    1.01847197643802
C         6.51631859030331   -2.75980245148283    2.61568332798618
H         6.82424417809759   -3.59778109131144    2.00764706978502
C         6.84416994242220   -2.72116072228866    3.95777676293329
H         7.40802539322085   -3.53428444712542    4.39374281714209
C         6.79651522245162   -1.76450267599868    6.21471917906708
C         7.53237836502711   -0.81107018062026    6.95315963395468
C         7.80004290808218   -1.04541782138081    8.31638116417773
C         7.38137043391840   -2.20081534044848    8.93972727959563
H         7.60881317039626   -2.35992692334138    9.98445467667294
C         6.66581957779262   -3.14447617214263    8.21677778114566
H         6.32279363244330   -4.05208217693843    8.69175530107484
C         6.38719049211520   -2.91949121283453    6.88110050599791
H         5.81881133976435   -3.65443631895573    6.32691915750935
C         2.64093841417173    0.96890139116798    2.95934355040590
C         2.31499988690770    0.44385343364305    4.20635659582940
H         3.07648783653892   -0.05993072192422    4.77967702588009
C         1.03782146063014    0.56961628086420    4.72346476694637
H         0.80554107150488    0.15181212625616    5.69284181577166
C         0.05572941250007    1.22471119047265    4.00030810672449
H        -0.94260313926115    1.32323641970654    4.40211818552261
C         0.35839326152052    1.74575018152186    2.75349592040961
H        -0.40544258033356    2.24975365558725    2.17806275377872
C         1.63576340044969    1.61338909824867    2.24040475394199
H         1.85512137111792    2.00225096828445    1.25563433542422
C         4.07134376717357    0.50203981368819    0.34874642829116
C         4.77127754314959    1.18979390083661   -0.63586624578764
H         5.51647933140651    1.91644370418882   -0.34382210257309
C         4.52839026008583    0.96417334301962   -1.97935931310988
H         5.08297494119141    1.51195849420427   -2.72842164636747
C         3.57499876613856    0.03746885705381   -2.36472168181632
H         3.38199645345170   -0.14004316008445   -3.41301134801234
C         2.86972815661460   -0.66062716381997   -1.39845478196324
H         2.12468895427826   -1.38653373275250   -1.69231489683514
C         3.11846449438925   -0.42696210363956   -0.05854118614810
H         2.56245552998110   -0.97107324482470    0.69195946266896
C         5.33825185514345    2.43880477029499    2.28749462994189
C         6.69423009770145    2.47088538192128    2.59770406295114
H         7.20517403857111    1.54555689797611    2.84315152883673
C         7.41021095979875    3.65598026141475    2.54074424092731
H         8.46528236282610    3.66400190146592    2.76664483786795
C         6.77820740666447    4.83390324255820    2.17913423873239
H         7.33716072768482    5.75772059656068    2.12538944430870
C         5.42640549838977    4.82171051300809    1.87649102876205
H         4.92939571718750    5.73643030843412    1.58336501916335
C         4.71940595026877    3.63429403028956    1.93091342940345
H         3.66760174987274    3.63100415933283    1.68268758626101
C         9.09132996401788    0.12834136868952   10.85126420595164
C        10.26756184000124   -0.48239237048725   11.27152943507710
H        10.99421933256251   -0.78726060267870   10.53153674594210
C        10.52414172378011   -0.70164718122784   12.61300192534647
H        11.44591123973376   -1.17786778316379   12.91708411444046
C         9.60066421430587   -0.30956421427813   13.56715052737025
H         9.79814232295331   -0.47686179146869   14.61650095545273
C         8.42199761461578    0.29809196930858   13.16833184027848
H         7.69627937118999    0.60616892781140   13.90822085896535
C         8.17463298656892    0.51119449703911   11.82426656491794
H         7.25351106718407    0.98837988853961   11.52033841296341
C        10.47341403663648    0.61339943332629    8.22384019395733
C        11.32659860264701    1.65680221410853    8.57236970466259
H        11.00492464374453    2.38612078281044    9.30170207292061
C        12.58824530752140    1.77259400121073    8.01622243623262
H        13.23308110011776    2.59180713801237    8.30328168858328
C        13.02903734505185    0.83469740769516    7.09772721468900
H        14.01481214104378    0.92011618196034    6.66243312397952
C        12.20215551595089   -0.22091492827507    6.75101985046241
H        12.54357445210887   -0.96342377260426    6.04339963227433
C        10.94135724563076   -0.32759916274960    7.31184006474117
H        10.30297371632893   -1.15367108225303    7.03722184858129
C         7.64364456511509    1.97233183815629    8.97864739673407
C         8.05271370994363    3.15463418449307    9.59009403454334
H         9.04429985327464    3.21759022252140   10.01408112995198
C         7.20814305309269    4.24447730486526    9.69359510366902
H         7.55137073576089    5.15177473580011   10.17116790750546
C         5.91155599063565    4.16099603636542    9.21376493456423
H         5.23755360676707    4.99976280979578    9.32327898083857
C         5.48067612100745    2.98857440864970    8.61677681665998
H         4.46147423928833    2.90078476749839    8.27344863281230
C         6.34430642929985    1.91480698899119    8.48264521485988
H         5.98023122464521    1.00163125522700    8.03176612351687
C         9.23583063380374    3.49588878990613    6.30966813589768
H         9.47546571643454    2.87437513963599    7.17829124105874
H         8.47277017723174    4.22362039132443    6.57996308814180
C        10.51036480675786    4.11090863063210    5.72391563278818
H        11.23466482165455    4.33944391245525    6.50123967785869
H        10.27585261216878    5.02746033897047    5.18304187652258
C        11.00774552917933    3.02052240266856    4.76221494547806
H        11.21252180308313    3.42962657771579    3.77400903865682
H        11.91271996646950    2.54278205331751    5.13136616715628
C         9.84777409523528    2.01011809868549    4.72399105807402
H         9.58372821520886    1.68580647516490    3.71697007600853
H        10.07822685157050    1.13349441268697    5.33808393945935
C         5.80030282658535    4.67545395939987    5.61375736032326
H         6.59248340645180    4.82670484739677    4.87684040997743
H         6.18818673964379    4.89752053095503    6.61630455311411
C         4.55042598651703    5.50324484819273    5.31589656382331
H         4.44925547006942    5.65671335539840    4.24157859764634
H         4.57079207311148    6.46916949795821    5.81519410383817
C         3.43974539214048    4.58672222036311    5.82190698145783
H         3.33834586675783    4.67675130561962    6.90369741458244
H         2.47733203196726    4.78171918058393    5.35588318823730
C         3.99264166920070    3.21825686399113    5.44056964190974
H         3.63969901777612    2.39921538587575    6.06739854567167
H         3.75424619741714    2.98259885877592    4.39751606307159

