32
CSD_code = MEZCOJ | q = -1 | S = 0 | Stoichiometry = C10H11N3O7V(1-) | MND = 7
V         3.58400845310661    0.69602202005224    0.27499434637803
O         3.16261958236617    3.20185302093642   -2.84988548315747
C         3.13223337919217    0.41333118121631    3.62157730592332
N         2.77095529551938   -0.86077674000827    3.37228612772442
H         2.04467733292552   -1.25800853173612    3.94516839455981
H         2.79252469814405   -1.11226513464255    2.38062354611012
O         3.04585647410714    1.44668095602348   -1.49913826861304
N         3.77090293950871    1.08633450774312    2.65892336904554
C         2.89381024985766    1.00365867666451    4.88272390832220
H         2.37009707747114    0.43678142621661    5.63749454830874
N         3.73124547169995    2.82343977169745    0.55888412340698
C         3.31018961687901    2.28856367984550    5.11383141421215
H         3.13327853210890    2.76250922777379    6.06913426703559
O         0.73033998909270    2.60762831703393    2.36554080591601
O         1.74159240850453    1.15413475286218    1.01463231908352
C         3.93231300269792    2.99129966015109    4.08568479955160
H         4.23479606086114    4.01840074089057    4.21836442677553
O         5.10982221795598    0.78329330919411    0.12198978536262
C         4.11960546141929    2.35213805104502    2.87274789494979
O         3.04548576721604   -0.77627347186233   -0.51105572972117
C         4.65664417616076    3.05789882809325    1.66378171310921
H         4.78565556435201    4.13637407293446    1.85611668126863
H         5.61699076643707    2.60763572175915    1.38894284831361
O         3.39972008075112   -1.01943004496787    0.73688899871542
C         4.25703052046160    3.31231817767480   -0.70502842019285
H         5.28783233451293    2.96313969790442   -0.82622664043517
H         4.21548357936053    4.40920337171813   -0.78740822369262
C         3.41676800208101    2.61158528448457   -1.81077844558017
C         2.42401695077415    3.39893780447957    0.84347704876113
H         1.92727535707361    3.68001567331627   -0.09102739136609
H         2.48148054118172    4.28054609023962    1.49657388735567
C         1.52904811621964    2.29132990126665    1.49326604256885

