79
CSD_code = MEZDUQ | q = 0 | S = 0 | Stoichiometry = C32H38N4NiO4 | MND = 6
Ni        5.51840420645321    5.32808693561263    5.96585490275453
O         4.17506626485571    3.70368345172262    6.53857497444071
O         4.78885993895377    2.11670653027175    5.10460517212764
C         2.26984593901540    2.04898441548641    7.69054264098300
C         3.04921443202809    1.63702168471610    6.63975100959875
C         2.88596815945060    0.34213581581601    6.11015243194125
C         1.95750527194426   -0.50864552126500    6.63469965643616
C         1.14423895128210   -0.11133490154819    7.71815372754387
C         0.17819146738423   -0.96719218060064    8.28589469060986
C        -0.59368021609694   -0.55316932055159    9.33524605181178
C        -0.43571860915532    0.73680639071919    9.86609390560541
C         0.49184665781016    1.59040300798963    9.33869355556243
C         1.30448909943461    1.19383342828106    8.25553467501832
C         4.09052519541239    2.55220985127225    6.03958874205210
N         6.48499028187411    4.20988520369801    4.79714854677717
C         7.78595810079522    3.87809147625710    5.38412509131606
C         7.62876476836571    3.59750524507308    6.88043958360328
N         7.04878292110563    4.78398626886784    7.49916679075157
C         6.55611922771832    4.64373483364131    8.85779633375935
C         5.75918728722266    5.88971389430193    9.25514661815745
C         6.61724560594279    4.64031120594935    3.40693211333135
H         2.39942418530515    3.04431842264476    8.09206659962880
H         3.51683792335995    0.05192184608998    5.28295843440639
H         1.83049808066717   -1.50295489512931    6.22921822932151
H         0.05916355825892   -1.95973018169578    7.87429665807894
H        -1.33161795697467   -1.21551363295594    9.76446778367364
H        -1.05446341276423    1.04706606195945   10.69582479476979
H         0.61797015172622    2.58474723504411    9.74430603275816
H         5.88328531347653    3.34193411959611    4.82170266477493
H         8.45518750020889    4.73498233834999    5.24740015282094
H         8.22356835311701    3.00408679288762    4.88217098044017
H         6.93502757020455    2.76348306978211    7.01982042867233
H         8.60077934452165    3.32104844566933    7.31991207084714
H         7.72564428347742    5.54631323712975    7.46178821205092
H         7.37828180181227    4.48932522913650    9.57665226921313
H         5.90160651708223    3.76832604370681    8.89107115858788
H         6.35631435674478    6.78281218411913    9.05696488357890
H         5.56070950264521    5.84598723481495   10.32753562178016
H         7.13352874277694    5.60562634068313    3.39541575598895
H         7.23455908152310    3.90776535054335    2.86610697521331
O         6.86191313795039    6.95249555626175    5.39323352788487
C         6.94605110524758    8.10416305230798    5.89182920253242
O         6.24757543529305    8.53976377901954    6.82665937448472
C         7.98760530380251    9.01930061052953    5.29193735586678
C         8.76726049596278    8.60728658033752    4.24139712238744
C         9.73274010292303    9.46241989685979    3.67655446902977
C         9.89265696684695   10.76769394674642    4.21371100133771
C         9.07905176879634   11.16509142630705    5.29688848263095
C         8.15068350884563   10.31422790335438    5.82147076063018
H         7.51945223965939   10.60455724470020    6.64834187917459
H         9.20573530646466   12.15954787192766    5.70212642127834
C        10.85877415720808   11.62359795732608    3.64613790535035
C        11.63113879084448   11.20941195996069    2.59720951185533
C        11.47331708211372    9.91941545837129    2.06641443925107
C        10.54581602577523    9.06573379046837    2.59374711488285
H        10.42021159902506    8.07114327140254    2.18854598400327
H        12.09235431457504    9.60910938882894    1.23692696050369
H        12.36858569508119   11.87194296340761    2.16742393405504
H        10.97705089429321   12.61647688614663    4.05719547537604
H         8.63825815625639    7.61167797121883    3.84026346333486
N         4.55183269403330    6.44629540406000    7.13450389087744
C         3.25080435608865    6.77806224615020    6.54761196566749
C         3.40806017027160    7.05867872933906    5.05130579805964
N         3.98810290029640    5.87227739928279    4.43249403279625
C         4.48081879954984    6.01268729059820    3.07388202966989
C         5.27777322782088    4.76672231554070    2.67659010497557
H         4.68058581030579    3.87367815219054    2.87477933410323
H         5.47624679135384    4.81040147752477    1.60421205825009
H         3.65871865753888    6.16737953854575    2.35499094959925
H         5.13550665711674    6.88796393443893    3.04082178635515
H         3.31126069482424    5.10992180999266    4.46969105375164
H         4.10173219522667    7.89276523451574    4.91196820901670
H         2.43602992562521    7.33509059556531    4.61185229137898
H         2.58161035678238    5.92114645291765    6.68432975537764
H         2.81320606606211    7.65204859474752    7.04961598310965
C         4.41971970538854    6.01590003552889    8.52475502551792
H         3.90339325119033    5.05060301573564    8.53638293380572
H         3.80247621444667    6.74849099799661    9.06557165165175
H         5.15337959019355    7.31432630173625    7.10980583939370

