69
CSD_code = MEZFIG | q = 0 | S = 0 | Stoichiometry = C24H34N4NiO6 | MND = 6
Ni        3.21649430139416    6.62487067366508    5.28416735438465
N         2.96029646424670    8.08082843703363    4.11272619086865
C         1.81411956121725    7.82269408274640    3.23676763200198
C         1.82547192837128    6.36380507083974    2.77197149282293
N         1.78383179046848    5.51436599846367    3.95642078680671
C         2.08139884764349    4.10537498015450    3.77108929918428
C         2.25635620035596    3.42498605861443    5.13241440093824
C         2.89521832142434    9.41580244786690    4.70437640998327
O         4.95832058652165    5.95066876892957    4.19197324776171
O         5.26289453873974    7.61226616864900    2.74391813531683
O         8.69173858694515    2.77366707808019    3.38687063008531
C         6.78597809170316    5.79617377744301    2.71539376845585
C         7.20043935420953    4.60547645275644    3.29137215899287
C         8.31401027774202    3.94318782077862    2.79257584570515
C         9.00980755144123    4.47833259767761    1.71495797771627
C         8.59237719246685    5.66859739416594    1.14315158086668
C         7.48512463988066    6.32910938901846    1.63837817993430
C         5.57204928814508    6.51984426473168    3.25384892786916
H         3.83663281951820    8.01648299890292    3.52940180329176
H         1.83673010859565    8.49280820349894    2.36625845178727
H         0.89620054951414    8.01266923459371    3.80391091119657
H         0.98333979126159    6.17856938972051    2.08544450016453
H         2.75880003425525    6.16338110919030    2.23806836554716
H         0.87504139449460    5.61245261485845    4.40866189350723
H         3.01395683981194    4.02839830929955    3.20538338137857
H         1.28789134053568    3.59039172678995    3.20332436648787
H         1.39699904123366    3.65406170537479    5.76682867776118
H         2.28451125210852    2.34504600356880    4.97677607434835
H         2.70882662871021   10.14867114534625    3.90543413726447
H         2.05184258809662    9.44124484454358    5.40167713782984
H         9.47251139939307    2.42315119778248    2.94186863082308
H         6.66192762887242    4.18875255858661    4.12770080875034
H         9.87807881588347    3.96082055368680    1.32605188355391
H         9.13986419281243    6.07678723981699    0.30600560131022
H         7.14454537449941    7.25780054594648    1.20723868871327
N         3.47270350539333    5.16890756919438    6.45561265808976
C         4.61888408768666    5.42705682576587    7.33156120643888
C         4.60754285959196    6.88594884775976    7.79635307145129
N         4.64917333957664    7.73538227585843    6.61190275355026
O         1.47466269858357    7.29906010408087    6.37637937490576
C         0.86091874400912    6.72981543964668    7.31445496259321
O         1.17011754446074    5.63741264917994    7.82439617729057
C        -0.35307213369834    7.45338527516890    7.85289025867927
C        -0.76778059410356    8.64391762420007    7.27672327330433
C        -1.88150358812366    9.30603370082654    7.77542636012808
O        -2.25948751489876   10.47541702269836    7.18102564929568
H        -3.04029780837067   10.82581466680820    7.62599869105077
C        -2.57712908345950    8.77094128064396    8.85316461209037
C        -2.15941830495363    7.58087689602178    9.42517496388258
C        -1.05206824667458    6.92049746080663    8.93002253917680
H        -0.71143154361542    5.99183820670342    9.36120532831656
H        -2.70698202970513    7.17253620409065   10.26226010928751
H        -3.44554193296948    9.28833227029942    9.24198897798503
H        -0.22933754911346    9.06065874607481    6.44038722260910
C         4.35164714544182    9.14438037656410    6.79723120762238
C         4.17666087208240    9.82475698102824    5.43590311994435
H         5.03600575352356    9.59567217395951    4.80147528705530
H         4.14851174709862   10.90469984405428    5.59152920222247
H         3.41910562295962    9.22138481677443    7.36295959965299
H         5.14518195452178    9.65935135367213    7.36496980815184
H         5.55794902947688    7.63726976912848    6.15963697165366
H         5.44968454717895    7.07118153723630    8.48286980032627
H         3.67422257536942    7.08638749404959    8.33026588942577
H         4.59628622588931    4.75694943786104    8.20207550569189
H         5.53679515434518    5.23708383637382    6.76440634104402
C         3.53778420349085    3.83392854144015    5.86397525358303
H         3.72413313669305    3.10106442388340    6.66293023539627
H         4.38118706405962    3.80847410316542    5.16670777396981
H         2.59636519575067    5.23324140186269    7.03892648072754

