59
CSD_code = MEZFUS | q = 0 | S = 0 | Stoichiometry = C18H30N4NiO6 | MND = 6
Ni        8.28418041050991    1.99088093912468    6.74965387347533
N         8.59330522900678    0.67663954487313    5.24654275889499
C         9.65123236124636    1.21286652101704    4.39140185692205
C         9.46799796937120    2.73122844636969    4.30098134040027
N         9.40724580537316    3.30046134620907    5.65206614232855
C         8.94339638180667    4.68915593501564    5.68470327182115
C         8.87745735735770    5.24907344727112    7.10513351094378
C         7.75965721021738    4.65339226168940    7.95946716771845
N         7.97110167741707    3.24599801565237    8.30058370944137
C         6.84736809041051    2.67103296122218    9.04649922592665
C         7.01042130723288    1.15226004289298    9.16372789732204
N         7.19536827644659    0.61566544532051    7.81837366465088
C         7.35715420032590   -0.82559629638070    7.71356210132492
C         7.44402303286269   -1.26721076733553    6.24833046269869
C         8.67467738796710   -0.75713211921954    5.49051191070424
O         6.18882067580067    2.40316687497670    5.89632305027142
O         6.34989404272295    1.36862850929564    3.94247493393959
O         6.41320564069987    7.17442216814168    5.74242568352918
O         4.78843104107651    8.22318884520034    4.58204599760128
O         4.66915889546883    4.90821968651174    0.65795944275403
C         5.52012676570788    3.59494788972948    3.96911498362425
C         5.51528300497076    4.77384612532919    4.70026713947967
C         5.30581678891567    5.98127980605997    4.06519454095008
C         5.01740771201294    6.02700999980842    2.71552855671226
C         4.96497145758198    4.83791454445870    1.98896745572095
C         5.24610264971594    3.62768677142062    2.60868153165007
C         6.02674538219193    2.35039664739434    4.65112291253843
C         5.52048707762029    7.29786635289136    4.90287213827346
O        10.34518302011802    1.31715123579058    7.96254415903837
H         7.67706658622939    0.84685030260417    4.72752306219344
H         9.61030014323139    0.77551628154420    3.38389307931109
H        10.63436299684123    0.97542632942393    4.82184974278684
H        10.27387447892910    3.18244254046961    3.70524337926287
H         8.51660455746160    2.93726095227337    3.80508757463367
H        10.34621521958079    3.27865140618102    6.05807836253472
H         7.94740394679029    4.73809603941976    5.24047489239933
H         9.61253978564006    5.32463327214824    5.08703401145654
H         8.66293173941879    6.31374084174448    7.01149148932676
H         9.84312700555849    5.12457748160219    7.60517260682163
H         7.66127224714153    5.25347715569012    8.87540734115983
H         6.82536917463627    4.73152974764696    7.40349520517345
H         8.81909500471072    3.17603459707193    8.86874981942600
H         5.94072707977682    2.88168940984419    8.47360453518576
H         6.74977157706059    3.12191120543621   10.04407337040641
H         7.89019960332847    0.91203833434230    9.77294315321360
H         6.12776727487303    0.72090745545424    9.65944196125498
H         6.37792922553417    0.89416698915373    7.25509567590780
H         6.50791722907976   -1.34755480360589    8.18233459567815
H         8.26374094977401   -1.13014035716376    8.25192557288481
H         6.55619227228903   -0.91551894759249    5.71996855674538
H         7.44628000925104   -2.35779522464933    6.21932951600510
H         9.58931015680639   -0.99160167750472    6.05262124535914
H         8.72949116753634   -1.29655941513704    4.53280597882909
H         4.65618415477618    4.01772133151373    0.28702940447714
H         5.70593127528057    4.74225589008381    5.76015620701458
H         4.83756906130458    6.96680477778902    2.21885101884975
H         5.26415565519864    2.70428935501107    2.04394152450319
H        10.92319049537494    0.98942529380343    7.26959387553092
H        10.01055907439868    0.54998225467378    8.43342182100226

