71
CSD_code = MEZFOM | q = 0 | S = 0 | Stoichiometry = C24H36N6NiO4 | MND = 6
Ni        6.63885087165691    4.20751108430207    8.00691186883774
N         8.06048216311959    3.61923693693918    6.90614619554727
C         7.53535088038628    2.83880761185632    5.78337499473894
C         6.41157608072466    1.91164891231127    6.26015109805463
N         5.35552745975574    2.73539731981635    6.83434029642627
C         4.34863738477197    2.06930422849773    7.64005032641253
C         3.50963032132090    3.10785177806143    8.39358933252553
C         9.02606102389194    4.62402961792034    6.46702399350851
O         7.11305353034794    2.79333193190810    9.51447934145718
O         9.04691244616500    1.95205636088768    8.79739380259217
N         8.46738408813077   -1.08150836974140   14.35390389830767
C         8.19461390365734    1.21099712960692   10.87567544654453
C         7.19031827119700    1.26288825258008   11.83642437927176
C         7.26468605251309    0.48887212515622   12.97412383339388
C         8.35439227118400   -0.35892241528494   13.18237030023595
C         9.36263733414225   -0.40905521601656   12.21774713750226
C         9.28056017521247    0.36640320791263   11.08212021277042
C         8.12275780543593    2.04597327870463    9.62815141016091
H         8.54892205836811    2.95521813076089    7.56528208098491
H         8.33603046987339    2.24482126636147    5.32018954141627
H         7.13427360136120    3.53297484758960    5.03638020434118
H         6.05935500450791    1.28716591637998    5.42233900560933
H         6.79880857743524    1.25389754952983    7.04344746665912
H         4.90221163576393    3.26991012610490    6.09462076544424
H         4.86296883566886    1.42759652877995    8.36061972302473
H         3.68233287528521    1.43725806475336    7.02740243007586
H         3.16541357394332    3.87239342935550    7.69342519817735
H         2.63175647123973    2.60687265561233    8.80647716065607
H         9.77322315419577    4.13891372685774    5.82039327689899
H         8.49462585611607    5.37760794104831    5.87719484019983
H         7.61388418646655   -1.24079946070735   14.86440899159050
H         9.09484856193045   -1.86918588981203   14.33185029489168
H         6.34592194983555    1.91763445415726   11.67691688459982
H         6.47970137735351    0.53145025734880   13.71716271879573
H        10.20913773969646   -1.06399008777506   12.37281166308797
H        10.05511223974032    0.33040276770774   10.33047169104195
N         5.21722759356906    4.79578305010616    9.10770923600632
C         5.74238845210355    5.57618438922337   10.23049208184872
C         6.86611291340926    6.50339072582572    9.75369459742339
N         7.92216634792415    5.67965738840469    9.17950617254782
O         6.16466555980111    5.62168307950125    6.49935294793505
C         5.15489215164648    6.36891882830734    6.38561329453647
O         4.23080833556446    6.46297453018945    7.21644899705076
C         5.08300331988733    7.20382332446187    5.13803807989578
C         6.08730075109746    7.15193689192297    4.17728606149859
C         6.01289387773164    7.92590450421601    3.03955590602391
C         4.92314985691387    8.77364011757661    2.83126574615787
N         4.81007419230045    9.49608618885421    1.65965474942553
H         5.66355309024739    9.65539636342329    1.14912852857484
H         4.18259844586078   10.28375832358619    1.68168999362623
C         3.91488060181219    8.82373884122681    3.79587062592634
C         3.99699822164041    8.04833254596268    4.93153076359844
H         3.22252137984720    8.08445027202472    5.68324514823906
H         3.06836864125838    9.47864589175190    3.64080039274492
H         6.79785376620271    7.88327906867991    2.29649602121295
H         6.93172456790055    6.49722650432351    4.33680469087267
C         8.92903613980252    6.34572839834853    8.37375764927532
C         9.76807529147828    5.30713878350409    7.62031708448593
H        10.11227959525810    4.54262647464419    8.32053508657004
H        10.64597704070511    5.80809081443406    7.20746727216784
H         8.41468637851965    6.98737040687861    7.65313868235795
H         9.59532444341681    6.97784891613605    8.98634551256619
H         8.37549719817342    5.14517358510765    9.91923609150291
H         7.21831615914791    7.12791292650877   10.59148792346868
H         6.47886406516278    7.16111569178806    8.97038365980383
H         4.94171520886915    6.17013709679223   10.69371532651340
H         6.14350280061594    4.88202147242922   10.97748214605087
C         4.25170657159503    3.79094220371438    9.54684861173284
H         3.50458234238760    4.27597555044068   10.19359176665446
H         4.78323484079102    3.03733507410833   10.13653905010887
H         4.72875962494423    5.45980577604290    8.44859829581943

