103
CSD_code = MEZFUV | q = 0 | S = 0 | Stoichiometry = C62H32N4NiO4 | MND = 4
Ni        2.93721944888680    1.58367860248617    4.91268205293073
O         3.05901990328067    1.33813871650914   11.70619470436929
C        -0.91016127644637    3.89048325234084   -0.37283398228934
H        -0.58087738731300    4.55332598939443   -1.15971591039965
O         5.79214137057440    0.38607271557967    9.86699208239953
C        -1.74883673015076    2.19282890434173    1.64712735481457
H        -2.06754910582118    1.51285488918926    2.42377130054224
N         2.68844385750784    1.12041440044359    3.07821821315150
O         4.54433032840791    4.86195793750794   10.68123004886119
N         3.18870301594312    2.04200121280449    6.73267499601643
N         1.08035687027905    2.12839603579645    5.05211942118644
O         1.43754021232056    5.10680995648836    9.38351688480665
N         4.79480196520488    1.04924395921376    4.81593478695393
C         0.85190734215028    2.17685213168209    7.48874943228975
C         6.57954015488130    3.13795044407535    8.90681451258341
C         0.53226375101243    2.23286877307721    2.66800504475172
C         1.94582454065897    2.82218409916815   10.11974280802877
C         0.27442414605573    2.50014619757681    4.00902705620135
C         2.80785857381782    2.49739103713580    8.95481636923233
C         6.73177954553546    2.78139704188082    7.55666406132515
C         0.35759454596905    2.34567734355011    6.18696799572513
C         0.01834846856993    2.03563374400978    8.66952839283702
C        -0.90561952841852    2.93355072670722    5.86035511238580
H        -1.62883559573863    3.27528917738113    6.57441997708901
C        -1.27894053932453    1.52351097887945    8.56655329264870
H        -1.65519807248543    1.24601432845663    7.59451075795323
C         2.23079998826675    2.18408009259964    7.68319453860974
C         2.52285053367682    2.39095043752242   11.46653910060502
C         3.47707652303336    0.29608519714272    2.32332580976610
C         2.88796096512652    0.10152468040009    1.03268561880243
H         3.28345269309363   -0.53361193789590    0.26476705455998
C         2.56317493775911    3.56518979008419   13.76206770285710
H         2.90101332619855    2.68343408785548   14.28559308280151
C        -0.43261043504880    2.64457734575118    1.63227881067377
C         5.06815816584391    3.78137041925120   10.78795766607484
C         4.71493658612079   -0.21373919850114    2.71254785693351
C         2.33394619671261    3.52082676089995   12.39708076372531
C         5.44097801339372   -1.14215782859216    1.82441742594743
C        -0.26840039303307    2.09985258663229   11.06665653032040
H         0.11864294273116    2.30980408773508   12.05377631800794
C         1.64546994306380    1.48555789795460    2.27750376900346
C         0.53757044904935    2.28538083212266    9.95092129592885
C        -0.94045324863590    3.06720954785532    4.51188938394322
H        -1.71226750901433    3.50569046653369    3.91054471824003
C         1.77292476656310    0.86942842571954    0.99116919734589
H         1.07387248673181    0.98332405192901    0.18566547738287
C         1.89247402772153    4.65212469680695   11.70395925659072
C         5.86991006599260   -0.74645468921366    0.56146711500062
H         5.68013898286024    0.26385239726288    0.22897141189067
C         5.67292234380953    1.45952593226141   10.38634605419209
C         8.79077154485571    4.10081425289875    8.91249242277362
H         9.58600515188298    4.59902264357661    9.44585250998870
C        -1.56328292563856    1.63128599684304   10.93958036850116
H        -2.17076494460849    1.48728613038411   11.82010565888932
C         5.64567563484578    2.14733988295879    6.82909647370018
C         5.31147336334767    2.78267086543644    9.65850872093817
C         5.80954235855205    1.38604108890303    5.66335017677172
C         1.68495126871603    5.85071473613954   12.36356609536912
H         1.35724072064819    6.72121548791625   11.81747150420810
C         6.39527199140401   -3.31889638651677    1.44007180008781
H         6.59907884074319   -4.32210145647007    1.78501123196128
C         1.72922366734258    4.35319081517751   10.26825985216791
C         5.89126764861200    1.81607010510067   11.80128569694233
C        -2.06418079392813    1.33069960077602    9.68351589469324
H        -3.06400766499086    0.93690950283076    9.57825433832272
C         5.55993227691463    3.15497773954956   12.03035301917439
C         7.90316086349495    3.16570697619250    6.89671550220717
H         7.99071376858204    2.98214960692319    5.83750464674144
C         4.15683987539175    2.60503517306641    8.74098024196663
C         6.71019122517677   -0.04765512200722    4.19878355542522
H         7.35697849212699   -0.69761959780972    3.64249665862348
C         7.62119466796234    3.77077541428290    9.57246943603204
H         7.51849800216284    4.02542909518773   10.61796670146439
C         7.01048174728489    0.70588015978891    5.28473121505557
H         7.93717052646699    0.74225771020503    5.82246184373491
C         5.33640860565537    0.20570539370856    3.88626246540147
C         2.34509864621803    4.76560827342725   14.42149329382782
H         2.51656906389337    4.82769518702986   15.48612741147880
C         5.68126409920471    3.71403695452239   13.29147293473889
H         5.42565675136860    4.75042610666927   13.45359603059188
C         4.36594106072041    2.28328134444369    7.36253057505272
C         1.91759886198776    5.89310463671032   13.73077096612484
H         1.76684975166136    6.81740992662431   14.26870441002908
C         6.81364635319633   -2.91991833565916    0.18150441904113
H         7.34461566558607   -3.61017741393817   -0.45726286545682
C         8.92319279226374    3.81011359367764    7.56457333869246
H         9.81936051204647    4.09469194291140    7.03380622769375
C         6.13689003461437    2.90580977669292   14.32223479035281
H         6.24006378450810    3.31661754169426   15.31586066873169
C         6.45418716621348    1.57167141458874   14.09744952504468
H         6.79565478445037    0.96306561943608   14.92172866638277
C        -2.63519266055408    2.58914112938374    0.66210403131719
H        -3.65359876781443    2.22899435970196    0.68055370845461
C        -0.01985264298175    3.49078005332009    0.60644687924597
H         1.00196944663103    3.84104735533574    0.59094204449914
C         6.55308356992689   -1.63119018454167   -0.25329052542101
H         6.88527044169645   -1.31302870113835   -1.23085430107637
C         5.71741648302067   -2.43504642358933    2.25945852898860
H         5.38815659281772   -2.74308867413865    3.24111250089978
C         6.33667181963381    1.01003037492543   12.83418850088544
H         6.57667657466335   -0.02531283617266   12.65010134563359
C        -2.22035455119289    3.44197333753898   -0.34705893673565
H        -2.91489370415017    3.75285914970937   -1.11343492579480

