55
CSD_code = MEZLIP | q = 1 | S = 0 | Stoichiometry = C14H32AgN6P2(1+) | MND = 2
Ag        5.57191531900838    8.63123571864087    3.62585240017888
P         7.28910345339606    7.30781894964997    2.47693441607262
C         8.27546230088685    7.91913590357587    1.05606128370947
H         7.60912866255491    8.17821182092326    0.23395454542575
H         8.97832114084212    7.15524163814701    0.72110325784252
H         8.82842700125378    8.81004526231993    1.35160299825786
C         6.71958715047702    5.64618595742810    1.82448177227305
H         5.74924521865640    5.76497874523654    1.33145743969022
H         7.44846979550482    5.31294424424036    1.07587249956255
C         8.64267761931752    6.64874119413479    3.59260966993857
H         9.49773310828008    6.38074389071557    2.96035198471368
H         8.95838363728675    7.43841157318605    4.28227128263219
N         6.61177295340787    4.62544477969808    2.83173591247467
N         8.26406735383186    5.48732950476344    4.35168251294806
N         5.93421821121578    6.01155034886439    4.68444832945665
C         7.87783002703191    4.37905023646288    3.49752868051737
H         8.65512891538889    4.20438062078898    2.75175732475636
H         7.77490581594972    3.48401540005571    4.11701177079631
C         7.23218677855976    5.72760824846481    5.32235439010451
H         7.51047357055074    6.58603983495884    5.94114159125081
H         7.16071916481870    4.83392024963754    5.96400235782762
C         5.59262562859724    4.87227127303812    3.81400227559599
H         5.47140431093420    3.95274561517827    4.41009411107183
H         4.64809180258428    5.09266551104030    3.30769315855678
C         4.90599493136062    6.18882025251024    5.70069012363018
H         4.79649403086323    5.29141817891693    6.32420306766901
H         3.95078652250065    6.39304784812025    5.21600235227731
H         5.17488296880251    7.02735847028943    6.34375575836427
P         3.88057908198208    9.96815713490408    4.79737091720860
C         2.90627952684263    9.36303679579617    6.22907130577307
H         2.33833358477092    8.48031891887940    5.93733564044419
H         2.21781963311760   10.13409891128412    6.57713872232977
H         3.58062115297495    9.09207427401196    7.04071880145080
C         4.49111634283024   11.61377566050563    5.45345176447891
H         3.77982942100389   11.95529410020911    6.21514462819039
H         5.46619631980636   11.47293782651630    5.93118603168009
C         2.52212029742675   10.66180201183964    3.70903132536541
H         2.17952594466735    9.88398396165106    3.01882062351535
H         1.68322126544438   10.94142421528238    4.35768024011499
N         4.60346385050840   12.63987394547522    4.45202465342583
N         2.91068929518122   11.82165338647199    2.95264077769906
N         5.22422139111524   11.25532648061940    2.57806944783424
C         3.33206521463752   12.91586516299046    3.80825294361570
H         3.44288521205848   13.81320601320107    3.19349436667505
H         2.57037244937503   13.10038769500642    4.56759299900604
C         3.92180863833520   11.56896609771545    1.96353659419344
H         4.00027569563418   12.46592536605659    1.32731984150756
H         3.61699542833319   10.72082403156472    1.34314853704541
C         5.60184955728696   12.38073546852213    3.45168661538599
H         6.54973287049575   12.13765031449453    3.94124846621515
H         5.73190155764432   13.30245472935729    2.86088757539081
C         6.23183661561032   11.06631386697087    1.54346752838573
H         5.93867634275526   10.23516095405479    0.90135762202748
H         7.19168411770860   10.84464284360463    2.01094629459950
H         6.34506179858730   11.96474856203015    0.92211846884530

