83
CSD_code = MEZNEM | q = 1 | S = 0 | Stoichiometry = C32H47AuN3(1+) | MND = 2
Au       12.39528355517780    3.51175864999152    5.18194248009565
N        13.31058650640503    1.49436569921657    3.19456702449973
N        11.44946690667447    2.40211765163072    2.58765212495413
N        12.33938310877680    5.13876911024505    7.78329788190233
C        14.47941232841054    1.21017591613346    3.95210916661267
C        14.42878219924525    0.21171357823093    4.92747581589704
C        15.58656243005017   -0.06072790963762    5.64379722650515
H        15.57818770830066   -0.82834255687916    6.40123571107577
C        16.75251143401089    0.63826982156903    5.39650577425410
H        17.64538351255159    0.40921940228884    5.95767658220460
C        16.77947321872672    1.63171285548920    4.43654634876041
H        17.69462952904311    2.17403333182095    4.25942504602025
C        15.64460002980706    1.93729046776870    3.69733325121882
C        13.15436276775008   -0.54547820281203    5.22017004830746
H        12.36948714911773   -0.20754435827626    4.53588110163442
C        12.67733830757383   -0.25048146363253    6.64434890253768
H        13.40785380125367   -0.58529844103740    7.37538853910846
H        11.73900621755660   -0.76489625346890    6.83730462325583
H        12.52041079528977    0.81969520381508    6.77829161933148
C        13.35008237541353   -2.04853468781375    5.01144797288249
H        13.72542612608187   -2.25265226289194    4.01081711205294
H        12.40431402224688   -2.56965781819252    5.13933429098564
H        14.05911790863695   -2.45203133934593    5.72831083128689
C        15.68111876110203    3.03986304120108    2.66483423929277
H        14.70326419226780    3.11055923286909    2.17790844495657
C        15.95435578709556    4.38754664110377    3.33705382056855
H        15.19363268600266    4.59859563297484    4.08807926195542
H        15.93959281813642    5.18323484898446    2.59621826029730
H        16.92644061084982    4.38977630279985    3.82191548940344
C        16.72691301711829    2.74609175574051    1.58723131173699
H        16.67965403518076    3.50034291426305    0.80538837208218
H        16.55378205937019    1.77027025271865    1.13793264807249
H        17.72925975016490    2.75349654736348    2.00527563647287
C        12.39007683202198    2.38797244680029    3.51809518064900
C        13.02452560021569    0.80857981254705    1.93513146426682
H        12.94691594589558   -0.26865112325238    2.10396151701881
H        13.83239759367378    0.98536483581322    1.21991745308993
C        11.69684263054152    1.44593483201717    1.50941218965292
H        11.76011499429813    1.96723586345938    0.55076606811235
H        10.87619471292291    0.72555463117807    1.45361428624328
C        10.30589926967144    3.24658741128769    2.59156411818654
C         9.13910775466380    2.80701463141602    3.22103989238930
C         8.02987229908788    3.64178753794904    3.19624096940154
H         7.11375370625926    3.32742924474078    3.67052463477471
C         8.08343181999135    4.87150587690510    2.56839975126741
H         7.21020947465244    5.50546639753221    2.55348963163893
C         9.25131570940227    5.29530207503937    1.96378734713069
H         9.28126415218130    6.26113444832456    1.48499432805064
C        10.38394795388464    4.49224152936253    1.96425489682253
C         9.07446264919965    1.47314131647820    3.92786944657748
H        10.03797614623846    0.96373140406021    3.82408553643698
C         8.82314682980167    1.67593742931309    5.42402698131222
H         9.60340589218597    2.30012824223867    5.85919603408363
H         8.82213728511886    0.71633676379592    5.93529095397685
H         7.86362127968711    2.15559862566901    5.59524541543096
C         7.99636208474992    0.57936371758852    3.31134115996721
H         7.00745951426635    1.00242109525731    3.46220605074452
H         8.01880318470443   -0.40516616673804    3.77246685560718
H         8.15665380100025    0.46438103117660    2.24125586343036
C        11.66270216935923    4.97640151655312    1.32119800173329
H        12.42426370129798    4.19405265519246    1.39927787788570
C        12.19418151316595    6.20577275683170    2.06215667070757
H        11.48931570779424    7.03013812861217    2.00201976720225
H        13.13545833222112    6.52742971701730    1.62314130884841
H        12.36317720776594    5.97228279094211    3.11294491491473
C        11.44982706625903    5.28327127205867   -0.16250606938188
H        11.03570790144063    4.41979433385486   -0.67904184743395
H        12.39667388839669    5.54429043215651   -0.62919170044854
H        10.76622139952912    6.11680558578352   -0.29385767107877
C        12.37647182284800    4.55147805670018    6.79159575143468
C        12.29879324181132    5.85884029026807    8.99125368569337
C        13.60670160178055    5.58520903685488    9.73750330335784
H        13.71348168192377    4.52422201427311    9.95150773374744
H        13.60526623592614    6.12981838319568   10.67699483379568
H        14.46147807164999    5.91052010620531    9.14905345211498
C        11.09089176107966    5.35819369769168    9.78682772213900
H        10.16919147963165    5.52541178802111    9.23416461359447
H        11.03272072499143    5.89615822089775   10.72834333673497
H        11.18312132339317    4.29560354747795    9.99967217361994
C        12.15764713595741    7.34233584826424    8.64283147559739
H        13.00317555878616    7.68064572851439    8.04835010198079
H        12.12281599250396    7.92496940045541    9.55857738282979
H        11.24263970878671    7.52106721801988    8.08270819390765

