123
CSD_code = MEZNIQ | q = 1 | S = 0 | Stoichiometry = C54H66AuP2(1+) | MND = 2
Au       -0.09692035058928   14.44502103189902    8.02131022306477
P         0.81194145673774   12.38577542821924    8.59868581193053
C         2.53127946039769   12.64979292982201    9.17029898570969
C         2.72657565927373   13.73920183643090   10.03921013724094
C         4.01276906729081   14.17672469794813   10.31555305578531
H         4.14334919851364   15.01679797540476   10.98271125681224
C         5.12626098166308   13.56409319386367    9.76399967577118
C         4.92130298298299   12.44378455736737    8.97225978612117
H         5.77912099639169   11.91755034576840    8.57906270055400
C         3.65477715673872   11.96489924490335    8.67263669939991
C         1.59775062361359   14.43786141953075   10.73827369899894
H         1.91885990289371   14.74743807741913   11.73135668474808
H         0.73020101403944   13.79037115359080   10.85004355703001
H         1.29692230057690   15.33921235215647   10.20071121661536
C         6.50924463655948   14.05117646491417   10.05279185959531
H         7.00549561341742   13.37204004879041   10.74577729766166
H         6.48970682385791   15.04158296737765   10.49964721223999
H         7.10251533233652   14.08390602076211    9.14121235538708
C         3.57574245786356   10.69821789304783    7.87525106696201
H         3.49677678484398   10.90482646857711    6.80832463674777
H         2.72376263894019   10.09086702846705    8.16704178682186
H         4.48039919146439   10.11421089084856    8.03226516156229
C         0.79280946560576   11.29600001264760    7.12739085424399
C         1.19752238816691   11.89197407567899    5.91838998994210
C         0.97592621108423   11.23318153435916    4.71917600792313
H         1.29063055182282   11.70648874361054    3.80002756855741
C         0.36931503848469    9.98803430403004    4.67127554974844
C         0.04622848005086    9.38045595484118    5.87509330501782
H        -0.37569159682995    8.38587129586739    5.86285986296552
C         0.25381629858201    9.99712470381088    7.10013108980539
C         1.91814670159840   13.20663853636919    5.85878266572108
H         2.63936391851351   13.19116915078368    5.04347938853645
H         2.45576224161332   13.41364511149825    6.78215843569952
H         1.22704635286054   14.02867669268494    5.66300499272809
C         0.12777362582937    9.29078755604586    3.37173350482874
H         0.92818104301249    8.57550320685267    3.18183764132765
H         0.10423706805390    9.99874351875842    2.54734884409863
H        -0.80981421668185    8.74029306784681    3.39678283547020
C        -0.06199441662087    9.19758611687739    8.32793006090998
H         0.62243196397174    9.42172070372458    9.14111483495730
H         0.01617047323519    8.13649473201582    8.09968526847222
H        -1.07716791884627    9.38719019725601    8.67529263324801
C        -0.19634483649890   11.65365095997865    9.94009998261942
C        -1.59152781658629   11.75059355297156    9.77954990602867
C        -2.42717958648410   11.46382028860641   10.84686937303811
H        -3.49578942693589   11.54662895700106   10.70855758601243
C        -1.92912204365218   11.07090249372827   12.07975238254796
C        -0.55825775921973   10.90475422076637   12.19917642650403
H        -0.15302105282823   10.54494540496015   13.13387609507983
C         0.31812794278626   11.17459194887814   11.15775728306442
C        -2.23839453805292   12.10601780830756    8.47328142897373
H        -3.17558098181715   11.56192009366188    8.36940573950737
H        -1.60339770127312   11.85110185260571    7.62689813824636
H        -2.47608684146173   13.17053195032109    8.42577869452269
C        -2.84485868270574   10.77318084989326   13.22262859985413
H        -3.74996214502253   11.37257345871145   13.16181324450091
H        -2.35373957988694   10.96231796723691   14.17394724994919
H        -3.13548485313960    9.72258031175024   13.19834399753971
C         1.76814855761097   10.87659143139689   11.39241042838451
H         2.26240799473125   10.54045627147302   10.48543914492065
H         1.86078871422581   10.09285427561955   12.14166197064810
H         2.29804121082993   11.75327726488104   11.76382389579525
P        -1.00626363016712   16.50424600544947    7.44485249707122
C        -2.72561256381183   16.24023063914181    6.87326632729347
C        -2.92090010341132   15.15083550265323    6.00433499948344
C        -4.20709123581418   14.71332580951929    5.72796407091715
H        -4.33766776711734   13.87327403026308    5.06077815797482
C        -5.32058639045776   15.32592677661170    6.27954866221317
C        -5.11563368617576   16.44621173040792    7.07132343481821
H        -5.97345091736287   16.97241867487488    7.46456025744197
C        -3.84911076792450   16.92511186629454    7.37094298136689
C        -1.79205398205354   14.45218290407824    5.30530080036400
H        -2.11312557182639   14.14264047689250    4.31218906743544
H        -0.92448418839787   15.09966082539487    5.19360659332570
H        -1.49125934784688   13.55081684953161    5.84285293277800
C        -6.70356472521319   14.83882365227184    5.99076329428949
H        -7.19983538016514   15.51794918458650    5.29778097980169
H        -6.68400713374063   13.84841833743170    5.54390614572450
H        -7.29683059609989   14.80608088329770    6.90234545897841
C        -3.77010467889966   18.19178685528415    8.16834409781857
H        -3.69113203445338   17.98517187173506    9.23526958905869
H        -2.91814519189413   18.79916884474432    7.87656171959098
H        -4.67477949392191   18.77577102195691    8.01134099860149
C        -0.98718260479156   17.59401567164385    8.91613652566679
C        -1.39191918299627   16.99803398954214   10.12513014428454
C        -1.17030508065942   17.65680345644917   11.32434843669317
H        -1.48503500667037   17.18349855499034   12.24348951165397
C        -0.56368055444603   18.90194508252398   11.37225696330240
C        -0.24060767756689   19.50954570985078   10.16844523063072
H         0.18129544838944   20.50413724281344   10.18069477233707
C        -0.44820180920794   18.89289045046540    8.94340312295186
C        -2.11260823619887   15.68340171796298   10.18470315565359
H        -2.83384028655038   15.69888181121314   10.99999117686833
H        -2.65024273186744   15.47644069002294    9.26133104593366
H        -1.42155538555541   14.86131822774441   10.38047043028731
C        -0.32213123510535   19.59918007456703   12.67180108088041
H        -1.12251914965818   20.31448894818069   12.86168459931279
H        -0.29862489493780   18.89122310640973   13.49618575221448
H         0.61547484018363   20.14964349134719   12.64675479382028
C        -0.13246462116171   19.69243821983440    7.71559010303482
H        -0.81693235486729   19.46827537292108    6.90244627738690
H        -0.21066652928994   20.75352500378351    7.94384702413495
H         0.88269499512264   19.50288034811800    7.36816170673185
C         0.00203922172327   17.23633308065521    6.10343203022939
C         1.39722505498587   17.13935667732410    6.26395017845097
C         2.23286604061117   17.42614100862613    5.19662320791536
H         3.30147464725805   17.34332135362141    5.33492461290217
C         1.73480563182619   17.81909640838029    3.96375434365010
C         0.36394177691731   17.98525298508340    3.84435161798150
H        -0.04131092021837   18.34508159251651    2.90966752428863
C        -0.51243317110321   17.71540643157167    4.88577800307436
C         2.04411230191573   16.78387570340186    7.57018644888270
H         2.98133582320503   17.32791442506326    7.67404187630028
H         1.40915072757216   17.03881778867974    8.41659007667227
H         2.28174528483553   15.71934497248918    7.61766734175782
C         2.65052301343443   18.11687319062805    2.82087746844375
H         3.55564858714406   17.51751327494300    2.88166816693674
H         2.15939647499538   17.92772904121119    1.86956379946907
H         2.94111036298671   19.16748531813838    2.84516511185042
C        -1.96245962003038   18.01336565723913    4.65111454502349
H        -2.45672913168389   18.34948003606081    5.55808710610623
H        -2.05512108434151   18.79710513336146    3.90186783638066
H        -2.49232375537659   17.13666340277998    4.27969201485797

