127
CSD_code = MEZQUF | q = 0 | S = 0 | Stoichiometry = C61H58BO2P3PdSi | MND = 5
Pd        3.41996707855950    4.53414379087475    9.61778328772528
Si        2.61405494864295    6.56888510259614    8.88899806103000
P         5.62500996187849    6.09536426030318   10.11561083311804
P         3.87637768543169    4.12710752295585    7.30838872402716
P         4.01583894828511    2.43030240631349   10.44919518113638
B         2.31644022191314    4.99553561523213   11.23605641168197
O         2.30274072201552    6.08512729021807   12.05815814339899
C         1.36693801251531    5.89124631630668   13.12259454702950
C         0.58469574410657    4.59534978364784   12.69073374405916
O         1.38509508242667    4.06515505692721   11.63174692343234
C         0.44169167384261    3.53411810219049   13.78133001896698
H        -0.12433684131980    3.92748711719248   14.62163137955778
H         1.41212483000105    3.18869532690197   14.12416573334281
H        -0.09021889606125    2.67815567799997   13.37143674721407
C        -0.79765938472788    4.88518467241816   12.09212394521879
H        -1.46818287665915    5.31146694316367   12.83270663365477
H        -1.22147049315485    3.95033423172645   11.73066256829290
H        -0.70587437483264    5.55934068664317   11.24415462919424
C         2.16885180906896    5.71883154529961   14.41698680387025
H         2.85917541794880    4.88481704121861   14.32599185691726
H         1.51101219534405    5.56128152788611   15.26736480960695
H         2.74994401867742    6.62282263137466   14.58449425905911
C         0.50959139186433    7.15158820382998   13.24229247322760
H         1.15703926240326    7.98849849910682   13.49364292469222
H        -0.23514664801874    7.03313073902181   14.02520605374939
H         0.01733607651896    7.38485722570974   12.30358238071729
C         4.82678638146094    7.73760247699725   10.30912992390537
C         5.53644911269943    8.75237723379982   10.94528310560117
H         6.53727604470269    8.56170601114327   11.31125158441666
C         4.96551349971076    9.99809253238601   11.11980319662507
H         5.51690169254270   10.78189564575292   11.62013135466225
C         3.68216999389894   10.23403666840849   10.65317725300445
H         3.22617255811273   11.20444479729771   10.79409613493351
C         2.99120741918998    9.22977764301734   10.00022527781661
H         1.99412982281023    9.42416952410998    9.63381933748483
C         3.54726854455715    7.97166650081907    9.80757134350346
C         0.76934468941126    7.10962655325294    8.71302402379326
H         0.35875200067707    7.35445925214709    9.68588542324030
H         0.16834819293649    6.31568674364116    8.28141881275569
H         0.67486691211736    7.97965748680581    8.07299682614077
C         3.31092872666575    6.80563528266131    7.09870574487740
C         3.28712374294032    8.03613097549573    6.45799983057497
H         2.86564680243648    8.88698221226470    6.97327540410872
C         3.80986976716681    8.19309122411504    5.18640777767749
H         3.79200607124988    9.16222675076410    4.70809119861491
C         4.36002876528096    7.10644747663300    4.52554356435538
H         4.76446160694073    7.22307165068113    3.52991739027875
C         4.39512872028138    5.86973583232494    5.14300362781599
H         4.83497565464012    5.02513786018423    4.63006764757420
C         3.88351537436820    5.72378648084991    6.42789379889186
C         6.19081647602308    5.77193380201366   11.82008404152416
C         5.53173948900029    6.31670371024839   12.91900128948516
H         4.69666444898797    6.98285000896494   12.76003635026562
C         5.92953963708427    5.98404109230629   14.20188191166912
H         5.42220022618843    6.41974569318359   15.05139943904124
C         6.97098980685439    5.09285876871099   14.40460863983452
H         7.28319594880630    4.84079739852633   15.40806723012224
C         7.60055774260057    4.51143154454892   13.31558163909203
H         8.39528353565026    3.79470165580012   13.46743182126029
C         7.20844000680018    4.84128624106844   12.03160629384245
H         7.68480883562191    4.36606174922421   11.18427034523113
C         7.14139242568442    6.71748724175481    9.29068451797810
C         8.40383068291552    6.83966743574060    9.85567856916937
H         8.56708059305777    6.57896397547695   10.89158875797964
C         9.46103819156958    7.30889613017065    9.09432582583439
H        10.44040420923624    7.40281071686344    9.54253825186462
C         9.27212632851045    7.66115498535225    7.76898632697591
H        10.10287458470698    8.02411226955223    7.18136073477682
C         8.01187629085738    7.55276767701563    7.20156863934245
H         7.85247844229595    7.83324488841219    6.16992986250819
C         6.95733677423279    7.08178942927340    7.95788015079416
H         5.96667027912067    7.00053494466168    7.52667883618152
C         2.32592609297119    3.46247224787035    6.60889055852503
C         1.22007163380398    3.38763905294273    7.44950596265175
H         1.32369512128653    3.68187002846790    8.49834405893188
C         0.00399579972535    2.94636119638731    6.95977751497855
H        -0.85251941704948    2.89002425055923    7.61600536005695
C        -0.11613362042852    2.57868455019536    5.63054416775211
H        -1.06444583995832    2.23090571714604    5.24695720067843
C         0.98054784810027    2.66363164921787    4.78701853949170
H         0.88430537634850    2.38557635921310    3.74709260237656
C         2.19670551367230    3.10963217235153    5.26895011607140
H         3.04743483953763    3.18273354009720    4.60599378710918
C         5.17776444450388    3.16588823342828    6.47542293435618
C         6.44889481720503    3.72740713255471    6.35899213687099
H         6.60752932478817    4.75420156406371    6.66403658562757
C         7.49867129423440    2.98129737221542    5.85994074820871
H         8.47701377406676    3.42967637864597    5.75952698130614
C         7.29976285406417    1.65912714795787    5.49439180974004
H         8.12183121770907    1.07409355270125    5.10843466684543
C         6.04583639847910    1.08755874388945    5.63176617527477
H         5.89004963165801    0.05428550561645    5.35515308369658
C         4.98955060659154    1.83290933693434    6.12334740435533
H         4.01206611735270    1.38387083936054    6.23455045741938
C         3.78178499119209    1.95391945909658   12.19422292036776
C         3.13681635664322    0.79995754807238   12.62152361297767
H         2.70257005337917    0.12053625744990   11.90121289552854
C         3.04294595674087    0.52336194390245   13.97481309811467
H         2.53423557543273   -0.37127923679960   14.30467532328759
C         3.59988062770088    1.38395754492336   14.90622594608470
H         3.52520366924199    1.16075440391121   15.96065519786086
C         4.24632392262632    2.53531732658732   14.48352712976673
H         4.68246938507370    3.21105879239078   15.20562299459064
C         4.32784758771335    2.82185036984903   13.13415238028717
H         4.80528441005790    3.72963141031252   12.78887551177749
C         5.72063911595529    1.82740996623766   10.19729140834555
C         6.14787192225934    0.59914665875521   10.69386991469826
H         5.46539729645588   -0.01767242909789   11.26282039116183
C         7.44089651580176    0.17294975352625   10.45604160692570
H         7.77186011834907   -0.78146276792976   10.84029929572277
C         8.31539072106195    0.96618128373261    9.72783972578282
H         9.32463184367959    0.62674121907890    9.54516416209544
C         7.89762401734673    2.19326045289326    9.24219847754831
H         8.57756489038421    2.81836795028202    8.68134581195625
C         6.60349076850955    2.62113457179926    9.47873833933533
H         6.26570242226903    3.58632497472249    9.11186442103840
C         3.01558757883909    1.18870009374003    9.57170747846345
C         3.53898288226909    0.25873276574428    8.68238453636607
H         4.60736420996814    0.19917170429372    8.52649693672468
C         2.68823187288543   -0.58680153415029    7.98972917129800
H         3.09865177295516   -1.30703654775759    7.29594251195760
C         1.31954965210289   -0.51378362970444    8.18185774249656
H         0.66176279468253   -1.17596327305608    7.63787163359077
C         0.79375807267549    0.41253059252142    9.06973688068350
H        -0.27502893546268    0.46828184734734    9.21834730769184
C         1.63455921974196    1.26743188863866    9.75510249582643
H         1.24264226350929    2.01282857543963   10.43795175583103

