86
CSD_code = MEZROA | q = 0 | S = 0 | Stoichiometry = C40H41P3PdSi | MND = 3
Pd        7.01089330589853    1.47915233393457    7.35879604763968
H         5.89872739538775    0.53876230448868    7.83062333062125
P         8.30854142265011    0.76675070267456    9.18054311605997
P         6.32889283459615    3.88938414466368    8.27035705090232
P         8.66510364838809    2.38410596769816    5.98923126665234
Si        5.58648513634768    1.96420920307248    5.60919581726863
C         4.33423973648290    0.72801512753198    4.82590265841106
H         3.49803666267771    0.56391790972061    5.49516443816627
H         4.80003966631423   -0.23100797434570    4.62898717923382
H         3.94761931157412    1.10677005797387    3.88783699954145
C         4.56263778042028    3.52611551828578    6.10061806207080
C         4.88113860147008    4.29535426309323    7.22089696789901
C         4.07231474717214    5.36595296510401    7.59861884403877
H         4.31303003643359    5.93123841298534    8.48982944351724
C         2.96188634526920    5.70217128816955    6.84992151885494
H         2.33938873197333    6.53413565420296    7.14761360727110
C         2.64833811332067    4.96071501460924    5.72178399755570
H         1.78027778545924    5.21660667624002    5.13046668108004
C         3.43843395107871    3.88424349217640    5.36490483536336
H         3.17144525484715    3.29802977676886    4.49887739389334
C         6.63857656091187    2.61806793166197    4.13387740447291
C         8.00326879826987    2.79905677596776    4.34371500882028
C         8.83522712641815    3.25077036766208    3.32409491801136
H         9.89361405664338    3.38380445191384    3.50345988401128
C         8.30284631899332    3.53397875828850    2.08154394623665
H         8.94499148116977    3.88098855221933    1.28443164841250
C         6.94312933854453    3.37146802544590    1.86135084327148
H         6.52519675790540    3.59857002199537    0.89059316398292
C         6.12438926080721    2.91855338674350    2.87951234704150
H         5.06708834908619    2.79655513769259    2.69698415971609
C         8.50207486333417   -1.05608323269375    9.25733773381626
H         9.10718068387267   -1.39039672631833    8.41436640284269
H         7.51679808511772   -1.51600045438303    9.18409441621472
H         8.98147709068512   -1.35136194611292   10.19109317999647
C        10.04152264052960    1.26961497052428    9.52957937510104
H        10.37306987999278    0.84203788882959   10.47580440008734
H        10.10716790315747    2.35602484628622    9.57444773752946
H        10.68256576508388    0.90845287032579    8.72535974579674
C         7.54223666290701    1.09053123786862   10.81340870002625
H         8.12668553785476    0.62776324672608   11.60926523030224
H         6.52978411697325    0.68806950188169   10.81258273817531
H         7.47869197742042    2.16586627937999   10.97932608350428
C         5.42399074764105    3.84520970580109    9.85844348887046
C         5.52372763442761    4.77843621199842   10.88155518024331
H         6.17991842921617    5.63191845281867   10.78121865105071
C         4.77612982284351    4.61599724449109   12.03610128621295
H         4.85451853461066    5.34617605266928   12.82931071221343
C         3.92805479523484    3.53115920464665   12.17651275938828
H         3.34698705145185    3.41310392632261   13.07957805499686
C         3.82659171124582    2.59670036926957   11.15656316238173
H         3.16564941226063    1.74853717963579   11.26455931431428
C         4.57330376201055    2.75117168295627   10.00613298872026
H         4.52247945271955    2.02321782676702    9.20047442577748
C         7.20939547602518    5.48296125354251    8.39326155238481
C         8.27947963029135    5.50732997634491    9.28677256042732
H         8.49829249599606    4.61525128058366    9.86340565175409
C         9.04688389530115    6.64394479051823    9.43940566053422
H         9.86749118324668    6.65493438193890   10.14279512428802
C         8.76357688941885    7.77098398381212    8.68389752460095
H         9.35757015650923    8.66538357437175    8.80334600740455
C         7.72866578288039    7.74155001686061    7.76490399838483
H         7.51798474150668    8.61418866508332    7.16254736529824
C         6.95997313655452    6.60133214298472    7.60846465418868
H         6.16448795775880    6.58362450523143    6.87725735922542
C         9.77808423906709    1.01551078240427    5.52260732764171
C         9.23128594089881   -0.25959988741814    5.65927555612874
H         8.21530628906281   -0.35965756204798    6.06358028511596
C         9.95986755392464   -1.37464048539347    5.29010294672392
H         9.53223080820123   -2.36153724412546    5.39665387605198
C        11.24202596560430   -1.22487079849574    4.78544067710452
H        11.81769776083435   -2.09436410108876    4.50321247295217
C        11.78643993139108    0.04090079937990    4.64146066204684
H        12.78488061068819    0.15632508289213    4.24415586891926
C        11.05844096281557    1.16151625324924    5.00093493923672
H        11.49222583802686    2.14511172997516    4.88539758413039
C         9.76402063893562    3.80259117053395    6.29271320499564
C        10.94797890490825    3.66495833474222    7.01037544607157
H        11.26388663550665    2.68440812667714    7.33862459083998
C        11.72793814772798    4.77193732739080    7.28938187545782
H        12.64983061569541    4.65422888869637    7.84153835010603
C        11.33341824734555    6.02680527143834    6.85662565221829
H        11.94814885697727    6.88967524836275    7.06675281303414
C        10.14700158089076    6.17368339023658    6.15716429608250
H         9.83512826546364    7.15148010314666    5.82131230983032
C         9.35745051574016    5.07190150167435    5.89004296839838
H         8.42280526777420    5.18716890801627    5.35684049078538

