65
CSD_code = MEZXUM | q = 0 | S = 0 | Stoichiometry = C16H41Br2FeNP4 | MND = 6
Fe        4.12787880717719    0.23837762835900    3.32910500032159
Br        5.10334341756572    1.78394884361297    4.79266727710052
Br        3.20170154136972   -1.40295531431046    1.95424420635479
P         2.20415638759519    1.16548640134979    3.75019523870419
P         4.55035512879394    1.65098644758318    1.72432596763848
P         6.02362146322672   -0.92393450437391    3.14345500364906
P         3.95983655826728   -1.30649373446391    4.93588651423598
N         2.45007216455572    3.32574782496378    2.09431960402824
C         1.78429346060982    1.09562510327408    5.54991866736832
H         1.53034386604562    0.04416243343423    5.73777838298526
H         2.71126044755863    1.31598897617642    6.08804296597237
C         0.67988946025592    1.99975975935004    6.08328335015364
H         0.50789548668903    1.76976896033132    7.13394926611827
H        -0.26013638909462    1.85728932198715    5.55439433774671
H         0.96515459860377    3.04633597094201    6.01486110383225
C         0.62897512464166    0.53437994578384    3.03388098522384
H         0.60201069696909   -0.54280788624123    3.23168527979789
H        -0.18079246956003    1.00658368113310    3.60112787835252
C         0.44239077296732    0.79695969816915    1.54588528346077
H        -0.58682524529229    0.58470579334172    1.26093508412558
H         1.08961931687665    0.14817729779688    0.96289258803665
H         0.66925575936342    1.83238568497503    1.30236970267367
C         2.04327530755433    2.97593376920629    3.44170926096095
H         0.98262822096837    3.22122599732467    3.56812813755500
H         2.62507928247364    3.52293968996910    4.20760890349833
C         1.85522028548898    4.58164500969214    1.67580482912012
H         2.12292530337813    4.77688401882727    0.63755706824627
H         2.18409108424950    5.43185323652756    2.29197711510482
H         0.76953732778906    4.50605833343721    1.73848360859966
C         3.89484416399542    3.35698265752678    1.97000897039945
H         4.38470841004715    3.82496579469429    2.84263026842857
H         4.15875696792485    3.93291630130586    1.07702613188382
C         3.98494998119710    1.37217516717949   -0.00666421446176
H         2.93231867745116    1.08487109121699    0.06530039899668
H         4.03463811571824    2.33082251304279   -0.53375385143769
C         4.76080928578201    0.30476155752042   -0.76635637071551
H         4.32545761149895    0.16924461635571   -1.75478176805237
H         4.71073140090089   -0.64815044936339   -0.24816430533896
H         5.80569157690664    0.58228893989445   -0.89040942723880
C         6.35176936791669    2.00879750658359    1.53669411861621
H         6.71393717664023    2.27684716681923    2.53448291589534
H         6.80988292681430    1.04809679633555    1.26947226573963
C         6.76481608678651    3.08299531160438    0.53878446137371
H         7.85075361835020    3.09658819207603    0.45280316657220
H         6.44713942163559    4.06809733717160    0.87112927775416
H         6.35144447427009    2.89699108072940   -0.44989807131529
C         7.58732570918278   -0.46860474370608    3.97855247394713
H         8.11723593499175    0.27504009487818    3.38394973890789
H         8.20945959844943   -1.35799942451824    4.09085909615548
H         7.37145376001335   -0.03802832696861    4.95536601142192
C         6.68034715253512   -1.88165371274197    1.72552628389226
H         7.23857806814473   -1.23173231522637    1.05229420358708
H         5.85822468906946   -2.34191919163158    1.17939502242965
H         7.34360172216196   -2.65784500787192    2.11137872101664
C         5.39340356236467   -2.26394876688361    4.25731442777599
H         5.02784499828595   -3.10387482838938    3.65687331809469
H         6.10882546472873   -2.61301756251539    5.00767036361306
C         2.68903045968191   -2.60676092082814    5.17019352403065
H         1.87003211192750   -2.22726260135268    5.78104591855934
H         3.15243205682998   -3.45515895159805    5.67690905639830
H         2.29976807119241   -2.92475810055187    4.20407340534010
C         4.48954146316281   -1.06648379458086    6.67218133336160
H         3.68530305064963   -0.60193511764233    7.24185878509479
H         5.36046365707683   -0.41330538312159    6.70641024290284
H         4.73202203863797   -2.03636131362771    7.10977149542347

