83
CSD_code = MEZYUN | q = 0 | S = 0 | Stoichiometry = C22H54FeN2P4 | MND = 6
Fe        4.02675375276185    4.55447212769644    1.95684188049171
H         4.14889542758047    3.64400869843264    0.83248378379290
N         6.56454121500120    4.61846348467333    0.60670586375444
N         1.04237838340840    5.86018037620603    3.69762226220695
P         5.50940991202559    3.15354378967389    2.55974598154307
P         4.09183643988375    5.85857348411700    0.25794819057323
P         2.04033652658319    3.80728369768297    2.14146148934989
P         3.74283480402520    5.88049386229235    3.59114164367401
C         6.25669402814681    2.77578127782208    4.21236576191343
H         7.20029294200677    2.23945400939317    4.07333732765721
H         6.48344775817835    3.74149687475333    4.67550291607999
C         5.28530966652086    1.98857527579845    5.08211043288363
H         5.59120859476952    2.00602085573997    6.12755958801212
H         5.22574403329796    0.95095188026537    4.76286840673927
H         4.28857550740208    2.41939521533706    4.99948398852628
C         5.36397867498123    1.45715188978665    1.83332751707441
H         4.38744133295368    1.07275011029799    2.14421669334620
H         5.30051473176533    1.65266234677519    0.75748132644998
C         6.45933447810769    0.43600894305226    2.11174933134354
H         6.30062533369183   -0.44264087565733    1.48744615489448
H         6.45840877234465    0.11256786912580    3.14921587310933
H         7.44367971531984    0.83767172817264    1.87990630366232
C         7.02657047834666    3.76663726946708    1.68420319899788
H         7.65031205231212    4.32631222390865    2.41309578172341
H         7.62900976493949    2.94304611200919    1.28188225486775
C         7.67458313808151    5.26465044705544   -0.05861349432819
H         8.32823643963622    4.50897854924258   -0.49810819105846
H         8.27340700112237    5.88733226445445    0.62920218102626
H         7.29342913443930    5.90214771745030   -0.85462282705545
C         5.60721639463435    5.54917260861748    1.14152214384395
H         6.06506409406194    6.44617623709802    1.58385782835238
C         4.23045985647639    5.16472823553528   -1.44803777116825
H         4.89109842917995    4.30373840556575   -1.29594413804101
H         3.24411771420899    4.78018515770091   -1.72924304713895
C         4.77204319512971    6.07599241497149   -2.54065535338247
H         4.92352425390452    5.49809302665487   -3.45169703063270
H         5.72810707809611    6.50836371589349   -2.25377333074581
H         4.08294964667454    6.88636745946461   -2.76774147676933
C         3.91311047201252    7.69256189830299    0.02807388433187
H         4.08056127584441    8.14136546325192    1.01258954779464
H         4.68987382188728    8.05612108929775   -0.65063398238277
C         2.52288387495976    8.05614850061030   -0.47711701641645
H         2.40681165441772    9.13665232297573   -0.55539639370116
H         1.76448926234885    7.67562701804180    0.20684216591163
H         2.33604362224689    7.61703950491301   -1.45517442681969
C         1.55271013563415    2.48296479795564    3.34403929699913
H         2.34548528742176    1.72989491099262    3.27438230456245
H         1.63965567727000    2.95306259629648    4.32964634890783
C         0.18395230229470    1.82672034339195    3.21194999242656
H         0.04649352809928    1.11301179219129    4.02368012767104
H         0.08702557128978    1.28946715810840    2.27241165438031
H        -0.61653386779460    2.56023467259964    3.27543619506202
C         1.26735270166026    3.22463952587173    0.56867442231172
H         0.19246896232858    3.07825204280238    0.71763125021323
H         1.41177820349697    4.05587274134036   -0.13084499033594
C         1.92297690073747    1.97236874401020    0.01087996181316
H         1.50662669529709    1.72041068817790   -0.96363084010635
H         1.78330528118837    1.12376199645734    0.67695787574795
H         2.99085047808361    2.14729827911943   -0.09791245741642
C         0.76091588795234    5.09607636001016    2.50222306027862
H         0.69843121026827    5.74489522843245    1.60396582312952
H        -0.20561720229596    4.59489902571286    2.62326001030964
C        -0.15168210193764    6.53760456884144    4.16728448097023
H        -0.92499561171299    5.79899204414485    4.37851443078642
H        -0.54731795612059    7.26014709473742    3.43598971785537
H         0.07067705087016    7.06974891314982    5.09213797758558
C         2.13604398275718    6.79069659456993    3.50057176439002
H         2.11311129284262    7.54700211719334    4.29190236091363
H         2.07283123690988    7.30988779233254    2.52535650176149
C         3.59157159316533    5.17624964456710    5.28924897407484
H         2.84058836766344    4.38770847824439    5.18748248096675
H         4.55192390766816    4.69165897803592    5.48388456276283
C         3.21821811703849    6.08989315581927    6.44959755811831
H         3.22934303464619    5.51513002796627    7.37525592318704
H         2.21823089301795    6.49403373278245    6.32066756418768
H         3.91909242881466    6.91366357498671    6.56021740604195
C         4.85743371450311    7.32272958877683    3.92429615337866
H         4.95973568401914    7.87054486995726    2.98268530289268
H         4.38707387310650    7.99525415349291    4.64798396553467
C         6.22455842093367    6.86261702885712    4.41186409918757
H         6.95089329302136    7.67332318612699    4.36089985352309
H         6.57565716000748    6.03922180033741    3.78965522162481
H         6.17388918013524    6.51415718768939    5.44102044001548

