49
CSD_code = MEZZOI | q = 1 | S = 0 | Stoichiometry = C16H26AuI2N4(1+) | MND = 4
Au        8.78332299004427    1.96068569071686    2.55120552413814
I         9.30360263889363    4.16969726364711    3.90658983693610
I         8.27579034353233   -0.25368770705260    1.20108845677504
N         9.31910725892277    0.61351168886408    5.17612135701545
N        10.99945431601800    0.34695436258000    3.85153925436623
N         6.41046671514012    2.99645463201737    1.03680362964276
N         8.22511397990461    3.82943118809407    0.22415850472592
C         9.77780971072156    0.89073779889085    3.94461760053860
C        10.25991475001827   -0.09655160129679    5.86321417956089
H        10.10765372364564   -0.42665072618088    6.86957827484405
C        11.31730479412292   -0.26168840548180    5.03095546065353
H        12.25026587628077   -0.76349486484564    5.18142912030850
C         8.03832548701473    0.99610984326330    5.70770448196227
H         8.00194049182336    2.07220070251870    5.89123013411794
H         7.87409931080548    0.47827284561942    6.64996886636008
H         7.24079454551659    0.72229796774038    5.01495571498683
C        11.87820261050225    0.38928136547965    2.70738856264488
H        11.27124160319128    0.36185900795999    1.80068655986454
H        12.49809411429614   -0.50967675134109    2.72716233403408
C        12.77262078568256    1.63176215450919    2.71658539637590
H        13.34994174334373    1.64238378698296    3.64316667506193
H        12.15330469128271    2.53106425985720    2.70712936600086
C        13.73498097901931    1.63690289211956    1.52699376957103
H        14.48113599874677    2.41625963826704    1.68740008802912
H        14.25982670246266    0.68028300277677    1.50155010415529
C        13.05800422352770    1.87773639827033    0.17602003264781
H        13.74570034429797    1.57908953093881   -0.61619642204993
H        12.17663565783960    1.24141789864956    0.08227437399883
C        12.67766050370258    3.34317215119605   -0.03983318925133
H        13.58953361193251    3.91446572610219   -0.21783598813138
H        12.22206951906066    3.75219121069004    0.86324773050964
C        11.73757812391367    3.53576696199930   -1.23185454739076
H        11.76225515077122    4.58038778200509   -1.54688715169198
H        12.10226928835643    2.93345310845924   -2.06493960985902
C        10.28491306096755    3.14814179190289   -0.94755823368116
H         9.73188371071910    3.11372099276309   -1.88827206975844
H        10.23860699367161    2.15104384609065   -0.50424911008579
C         9.60991860117565    4.15799679023922   -0.01576599646117
H        10.13084671695960    4.20143654837431    0.94224850842612
H         9.64512182749081    5.15278750418196   -0.46499890291548
C         7.74557311407033    3.01712220241100    1.17716004885794
C         6.04987081778284    3.78663376329643   -0.01557442149642
H         5.02971749051420    3.91714534591179   -0.31078541426719
C         7.19150880163761    4.30865396487293   -0.52722434896269
H         7.34439418441881    4.97896718470225   -1.34710191112418
C         5.48116707693771    2.25019255432073    1.84180715744016
H         5.39420559210111    1.22407138533986    1.47654953272014
H         4.50212911259467    2.72259160856098    1.79250954783776
H         5.80992031462473    2.23171371301647    2.88123713201915

