62
CSD_code = MEZZOG | q = 0 | S = 0 | Stoichiometry = C27H27O4PPtSe2 | MND = 5
Pt       11.99030648724477   11.80359857507708    0.23368181544286
Se        9.83542616927275   12.10630661548997    1.12724601487997
Se       12.76838414033322   13.71169911086028    1.48178106726524
P        11.17192964218266   10.02054878765868   -0.96002499709689
O         8.75636030294659   14.77998135279380    3.87920075186591
O         7.82625473369496   13.17875914250378    2.59482249179008
O        12.18779840590903   15.48592029837509    4.14717204924350
O        10.67926076164583   16.48081080137892    2.79999162508826
C        12.59525706634449    9.16339267814665   -1.80902412630147
H        12.20867924731220    8.29119878645641   -2.34580899692634
C        13.21243357435763   10.13063190382264   -2.77130793753194
H        13.26440692718522    9.82635073169240   -3.80679534312280
C        13.68624382009857   11.33085334679990   -2.41073812795530
H        14.04978323491922   11.98825569545608   -3.19045315515839
C        13.81289527561027   11.84915160002675   -1.06683504492673
H        14.16692499881129   12.87857821237328   -1.01216726654107
C        14.08402302647257   11.04347281158697    0.06302084448393
H        14.62222326914889   11.52845649426908    0.87702287593159
C        14.24207624684297    9.60846540754436    0.01686179611090
H        14.94213760186231    9.20269941323053    0.73689758663125
C        13.64578429985013    8.75616632632550   -0.82971821508885
H        13.91839957511238    7.71019817779708   -0.81189279028117
C        10.24978721746440    8.76073271528563    0.00574367459509
H         9.30985371726757    9.24939865397872    0.31708551340167
C        10.99789183884916    8.37608936736813    1.24811614711316
H        12.05257886884626    8.60759400413369    1.30879432110261
C        10.35713683214019    7.78289445835208    2.26062599397940
H        10.88074668148516    7.61016864302509    3.19154773914826
C         8.99560964412067    7.32631271707956    2.20796516336964
H         8.47467769118550    7.27619728671958    3.15509891345928
C         8.38864504091224    6.81748337758246    1.11432091264513
H         7.40657924578559    6.37705048955798    1.22851106974557
C         9.00859195807861    6.65029693861768   -0.17174176226165
H         8.71000652567660    5.77352835377857   -0.73202123994444
C         9.92291541137100    7.47807989535845   -0.68941347574966
H        10.42612708406162    7.23264223282778   -1.61339535536870
C        10.07435398629356   10.37319241005618   -2.39158431395378
H        10.14119758987898    9.55528475082593   -3.12467980996241
C         8.64265701111491   10.62176239384810   -2.04104094656139
H         8.38815839952652   10.83649256914662   -1.01064225113543
C         7.71029341867334   10.60270509043075   -3.00485977968151
H         6.66572906301424   10.66409801677603   -2.73041126298163
C         7.99409209008870   10.56368271919344   -4.40820983684219
H         7.22553365324573   10.14855868928046   -5.04732836597177
C         9.04835890780862   11.18598757136519   -4.99036662594030
H         9.07979818442818   11.24345436849853   -6.07067916509439
C        10.01632502495388   11.96124568048229   -4.27401820993557
H        10.38074347573019   12.85198089357344   -4.76800346738364
C        10.43567346679741   11.67502811615005   -3.03368200934865
H        11.02484762910375   12.37718099664420   -2.44895767356410
C        10.04767547007248   13.62074918290135    2.23903804789421
C        11.22851168981022   14.26830606972813    2.35281975203939
C         8.85281810428636   13.95929920198094    2.99924960490910
C         6.59291723688746   13.37141273538659    3.26053606801687
H         5.88676050611163   12.68395846949598    2.80124127325686
H         6.25716492120606   14.40442073702481    3.14194750727920
H         6.70020873516861   13.15682734349321    4.32661836294587
C        11.41555246322953   15.45549063105921    3.22463619871773
C        10.68536250605793   17.64739628822525    3.60938230206365
H        10.46456331320942   18.48620690862005    2.95267120802854
H        11.66066886354765   17.77005352284590    4.08498934127599
H         9.91469772548754   17.54965923983068    4.37636351923957

