47
CSD_code = MGXIMC | q = 0 | S = 0 | Stoichiometry = C13H23CoN6O4 | MND = 6
Co       -0.62177818518454    2.56657215107564    2.45061396613431
C        -3.78023642125221    5.21411863401555    2.00991406203455
C         0.28857512407592    3.70903760802872    5.15311092587458
C        -0.07018059057308    3.71944670787833    6.46778946185846
C        -1.91440243834822    2.65540451042197    7.77438097501148
C        -0.62087964352598    2.22740512793146    0.49921380603198
C        -2.48011199800987    4.48659042695617    2.11411638158083
C        -1.21471430351711    5.15065732793893    1.96796077465511
C        -1.08943740951983    6.61982440141711    1.71348932675389
C         2.52201358998810   -0.11359195174890    2.75541014139365
C         1.22464338006973    0.62427695902052    2.70335580128198
C        -0.03934763438303   -0.02771591613502    2.91242563533420
C        -0.16013215424991   -1.48413790605112    3.23421851178859
C        -1.46423826761359    2.49023840735535    5.33657971279007
H         1.10581995035643    4.20530565689410    4.66886138061812
H        -3.85572054156232    5.96852688449808    2.79177443249540
H         0.36621624614668    4.20568810580474    7.31535269223908
H        -3.14803717857932    1.52617772752837    2.72897419888511
H        -4.60103431001743    4.50898976503739    2.11014816797196
H        -2.84853863830151    2.15751100962761    7.52136235315542
H        -2.13522584378749    3.58097543065752    8.30799171463713
H        -1.33146954032162    2.00429244796359    8.42977743219734
H        -3.85096648189012    5.71666060477149    1.04709096921889
H         0.26048124887536    2.66976861744167    0.03586840040604
H        -1.49819872855213    2.65547622281965    0.01612997206661
H        -0.60948799155195    1.15990222140962    0.28252278357071
H        -0.03221413980142    6.86979748589595    1.65747171834905
H        -1.55128310226760    7.19525918090314    2.51493851127479
H        -1.56977563657949    6.89099099887489    0.77451397503272
H         2.65077036197621   -0.58778182989051    3.72706409710029
H         3.34098762414569    0.57872472120367    2.58012773160122
H         2.53945629383730   -0.89117142971190    1.99361624916812
H        -1.21605186758716   -1.73189431038765    3.31883615572788
H         0.33847014276161   -1.71870231588948    4.17421836886185
H         0.28756727822937   -2.09010614106323    2.44820844489094
H        -2.28958606443646    1.84289288479889    5.11024304953033
N        -2.37887508886042    3.22113995304331    2.35448857930284
N        -0.18884045558048    4.35875142701127    2.09635394682223
N         1.12607788877559    1.89362966407543    2.48545042776244
N        -1.06259949461736    0.77097950457264    2.81513648831599
N        -0.59165879555498    2.93727921904855    4.46044004613279
N        -1.18708679289472    2.94078732672750    6.57048091554083
O        -3.50786053531350    2.49086859151848    2.55080284295227
O         1.01979512387785    4.80410226793082    2.04519926959141
O         2.25340123000921    2.62393955169963    2.30221824774520
O        -2.26625888783464    0.35846967476019    3.04755911990167
H         1.89845367894175    3.59474239231841    2.15179783441337

