54
CSD_code = MGXPCO | q = 0 | S = 0 | Stoichiometry = C26H17ClCoN4O4P | MND = 6
Cl        2.26961146505295    3.65667521207391    2.42431688778822
Co        1.54298208901693    2.23497878211021    0.91893550831866
C         0.93012372027716    0.14170892280029    3.94640027328672
C         0.27036311582762    1.78772769785553   -3.28413706242062
C         0.61354286220576    2.30969417928727   -4.51845801711234
C         1.94322974886654    2.40620482195616   -4.89243178464512
C         2.93348609171128    1.96900701868895   -4.02840425729830
C         2.59928572698745    1.44696849274326   -2.79227974986754
C         1.55397886944912   -0.88444209364351   -0.52470441757988
C         1.15717729691982   -1.58110095526729    0.61940902430528
C         1.68740204852207   -2.82307845780997    0.90193982310854
C         2.61949697346733   -3.38662126271405    0.04376715471852
C         2.99348724362216   -2.71427675021306   -1.10595212175191
C         1.68831145626625    0.58153744730911    2.90908235165209
C         2.46509828889278   -1.46696336463442   -1.39538250420622
C        -0.95302081351370    0.37989999342209   -0.87462928927763
C        -1.89109027824824    1.40864585800109   -0.80694467060579
C        -3.24090590024701    1.13212907011851   -0.92709919319342
C        -3.67002508176552   -0.16920139572190   -1.12469066757429
C        -2.74072135881830   -1.19171348996978   -1.22017166083841
C        -1.38936808296782   -0.92406809440271   -1.09814683659722
C         0.20879266035059    1.21624095869030    3.03541144951913
C        -0.32092571836688    0.52068938363242    4.26626382505931
C         2.48902913901774    4.90708824026505   -1.52107950914453
C         1.62256292263483    4.27802923405113   -0.68306221198098
C         3.08773552955267    3.63237081850270   -0.79742439540686
C         3.75041378570681    4.54373520652969   -1.80945910844732
C         1.26007406824374    1.34646546763381   -2.40855357367973
H        -0.77075463578293    1.72215262550309   -3.00524226844467
H         2.75602909284665   -0.96356230923618   -2.30395591279519
H        -1.57843496548176    2.43231086605422   -0.67210169021242
H        -3.95524154034026    1.93836419891009   -0.86263417882668
H        -4.72389698431696   -0.38625478986595   -1.20977810346784
H        -3.06668251457773   -2.20699894094385   -1.39037307043337
H        -0.67887454379985   -1.73287489750570   -1.18141001284976
H        -1.15422904763916    3.30194075908529    1.29869764594094
H         4.22741881550022    1.15530026691297    0.58454653136086
H        -0.16432831498138    2.64760653464087   -5.18656303676713
H         2.20789938985778    2.82381366979385   -5.85155100017147
H         3.97304160451081    2.04644817685010   -4.30673411339038
H         3.39168989108160    1.12431992399256   -2.13309604284633
H         0.41031178807444   -1.14830254795182    1.27462174989005
H         1.37687932142775   -3.34998457766052    1.79161640168869
H         3.04633914264918   -4.35161212946527    0.27009914389582
H         3.70581165729762   -3.15827081218767   -1.78485532036771
N         2.43134848347234    0.80933859828095    1.92634056387240
N        -0.02821372444500    1.96453619779231    2.04088187647771
N         0.71093655697667    3.75241181978909   -0.00250121335815
N         3.16570635863424    2.58801635908216   -0.08641734620826
O         3.55026510926256    0.27994133294099    1.64536048231847
O        -1.25759743391360    2.55494696519934    1.98121714883838
O        -0.49694054732642    4.12289990564923    0.11801603633088
O         4.32972049258967    1.87845418560510   -0.13622159338797
P         0.82566867978409    0.77262767744562   -0.73037794322133

