29
CSD_code = MHCOFE | q = 0 | S = 0 | Stoichiometry = C11H8F6FeO3 | MND = 7
C         4.23930125811109    2.07866770539386   -1.72199397156774
C         3.03925378638912    4.66670222529298    1.74298211870525
C         2.56577262644542   -0.62740437053377   -1.45678932608717
C         4.36026406759621    0.57299653105164    0.67642308092432
C         4.99741261946239    2.85033381560404    0.49289844083239
C         2.11670167979369    0.67671144394380   -0.78927614888875
C         1.13938714768078    0.37440488616913    0.36174314934874
C         0.67308956800499    1.68596273730614    0.98635449560307
C         1.85942989805339    2.46903096394399    1.50137800448725
C         2.35289191407656    3.62757954600599    0.89761385454293
C         2.35494653554732    3.74250075876619   -0.51290937346954
Fe        3.57313083691846    1.98245211642523   -0.07721831019039
F         3.07078211175107   -1.50893664266456   -0.58480418830060
F         3.55705416921662   -0.39646511100574   -2.34718717544246
F         1.59993422540921   -1.25095526638386   -2.13178279245159
F         1.78004363435068   -0.36262141377697    1.32010451185193
F         0.08348269568862   -0.38898454127349   -0.02092507569189
F         1.33916163776306    1.29921786413864   -1.78054685691131
H         3.50919778974082    4.23118460965668    2.62170652153767
H         3.78098530686392    5.22521152162375    1.17789665046919
H         2.28001861381495    5.37160906295434    2.08514330045626
H         0.11988912060600    2.23775504233722    0.22436876182880
H        -0.00082389600515    1.44390196206341    1.81035183384339
H         2.01621614343533    2.36768728351274    2.57000388463920
H         2.78483078493058    4.64775583450988   -0.92331550683800
H         1.49659995445340    3.40722585415015   -1.07833105934288
O         4.69074951002136    2.21355208291555   -2.75323574805157
O         4.97217874808952   -0.25678043048858    1.15066327208589
O         6.00221751179072    3.28800392836149    0.81068365207753

