47
CSD_code = MIBBAC | q = 1 | S = 0 | Stoichiometry = C16H26AuN4(1+) | MND = 2
Au        4.80156240291795    9.81263691158432    6.16113179070988
N         2.13243371916023   11.08499482722518    5.37095056445566
N         1.89614282687841    9.02146230717188    5.90228717620633
N         7.44444933195637    8.37555968167543    6.56019931284628
N         7.67055627710533   10.46529040459293    6.98531732346646
C         2.81412327186103    9.99566716672148    5.76258643223585
C         0.65075754491468    9.49740930422064    5.60945209211070
H        -0.22606621602743    8.88600609271760    5.65592345440062
C         0.79930021558977   10.80079514658449    5.27018750465493
H         0.07695892903037   11.53013343316683    4.96855750480461
C         2.69518423300966   12.37585823603088    5.08937191050753
H         2.39343607202749   13.09746629883919    5.85087026729376
H         2.35148384967356   12.73003785795121    4.11734814699629
H         3.78098658416184   12.29870464078322    5.07972417208212
C         6.77392791314607    9.54118494101269    6.59994681986772
C         8.75037010052907    8.56809112959870    6.91106684208996
H         9.46618076061130    7.77375068285244    6.93764738255784
C         8.89367882874853    9.88774019404448    7.18084246799714
H         9.75163388140292   10.44763284689557    7.48953062961916
C         7.41597870778221   11.86699250923727    7.16495579268912
H         6.35100531765986   12.05600745900971    7.04207835391378
H         7.97157739652519   12.45131333610188    6.42946899043041
H         7.72337432209240   12.17963903581033    8.16341768967464
C         2.17344308442281    7.68126570123404    6.35441965043069
H         3.17303244603333    7.41246022010211    6.00851620294739
H         1.44978836362820    7.00007996293041    5.90158204134290
C         2.10197025389048    7.58843235573380    7.88178129936864
H         1.07143505778577    7.76214076688856    8.19810170128569
H         2.71559309651171    8.38103885616227    8.31308550727859
C         2.55745373400734    6.23004485391541    8.41733434436791
H         2.39670825095302    6.22799114976329    9.49673212276663
H         1.92624039760819    5.44830057941771    7.99028219522444
C         4.02318441641487    5.88292330485722    8.14010014885692
H         4.23765237873645    4.93110750198985    8.62968523099420
H         4.17028396614545    5.73449396477010    7.06899675186382
C         4.99443376634318    6.93812703871916    8.66611381751164
H         4.72207961144499    7.18076225847289    9.69554706763509
H         4.90181055753207    7.85568428160244    8.08008898152569
C         6.45631685549694    6.48888843936098    8.66511823787088
H         7.06691025422745    7.30859817438721    9.05273631027851
H         6.56940859727919    5.64931932777336    9.35312626982461
C         7.00781013533362    6.04960745801189    7.30683380565843
H         6.48801128837955    5.15302967042775    6.96918776933486
H         8.05819169712770    5.78349359206856    7.43789347561244
C         6.88671986692842    7.09710025416580    6.19505114339951
H         7.40453091028222    6.72937278368039    5.30298814712700
H         5.83935474273012    7.26346305973571    5.93633515588473

