49
CSD_code = MIBBIK | q = 0 | S = 0 | Stoichiometry = C12H30Br4P2Pt | MND = 6
Pt       -0.00175139836212    6.79581899249819    0.00057739411977
Br        1.05169933794213    8.35694752599187   -1.69460011980833
Br        2.20437274116709    5.60583050885540    0.37923801673574
P         0.58191533119841    8.25927680399110    1.82008223922259
C        -0.78953080212240    9.30265096390897    2.46888237387636
H        -0.33145125120592   10.03592468877746    3.14015341931391
H        -1.21337480707151    9.84878745362710    1.62077436229595
C         1.83309720899615    9.55442390684847    1.43833549401912
H         1.45795205949241   10.13149329224197    0.58773334645182
H         1.85804571541702   10.21994062658981    2.30710307270208
C         1.24302132727623    7.37191937597066    3.29096804125073
H         0.47364496287332    6.66733294646154    3.61790691755851
H         2.10205612760186    6.78143449768454    2.96146670444967
C         3.22921912314886    9.02615234083946    1.13534374855650
H         3.61108061838495    8.41462263153930    1.94979070814286
H         3.90904940596306    9.86213379611866    0.98528768234854
H         3.23647839785198    8.42892560737167    0.22761809491279
C        -1.88636608747952    8.53301221509957    3.19349407301444
H        -2.37081094831517    7.81897706352032    2.53266085142800
H        -2.64730376720208    9.22762353080527    3.54294036138413
H        -1.49446848085683    7.99300131549631    4.05238088080211
C         1.64716427274428    8.27454045066734    4.44987457394114
H         2.45668254783992    8.94574749045971    4.17332409561578
H         1.99596012169988    7.65388431088640    5.27307058710904
H         0.80904434608188    8.86597431412018    4.81104712416319
Br       -1.05167048441611    5.23488062021092    1.69633453834450
Br       -2.20408306851337    7.98908898665356   -0.38016878861712
P        -0.58161829309361    5.33397011497310   -1.82028217243564
C         0.78963544255152    4.29039775959456   -2.46904983693284
H         0.33154227963544    3.55715862554752   -3.14034723937779
H         1.21345703297109    3.74424645363262   -1.62093896531286
C        -1.83295738891324    4.03899027377177   -1.43834709309029
H        -1.45784284140446    3.46187014637511   -0.58776495744511
H        -1.85793377567629    3.37347803151766   -2.30711713722004
C        -1.24295931746696    6.22127981830171   -3.29105914293784
H        -0.47362100462542    6.92587267231094   -3.61804613250532
H        -2.10198402802315    6.81174253146211   -2.96148805029050
C        -3.22914791890340    4.56713698946916   -1.13537604170622
H        -3.61102192076470    5.17867311409939   -1.94981237331219
H        -3.90894853361987    3.73111970748845   -0.98536115756283
H        -3.23647708575289    5.16433505533183   -0.22763679506730
C         1.88641502698769    5.06019562271518   -3.19354704805836
H         2.37081026618314    5.77419121820859   -2.53263148533473
H         2.64738245477299    4.36565080389552   -3.54304618856046
H         1.49450127862584    5.60027641403985   -4.05238945033653
C        -1.64717121169350    5.31861820549978   -4.44990051005815
H        -2.45667220198410    4.64741516359860   -4.17329713819776
H        -1.99600138379210    5.93925435644846   -5.27309349843095
H        -0.80905942614827    4.72718066448299   -4.81108737915993

