60
CSD_code = MIBCOR | q = 0 | S = 0 | Stoichiometry = C19H34BrF3P2Pt | MND = 4
Pt        2.89894287549391    3.26514218266318    1.82531511392236
P         2.82107055893559    0.97159468722921    1.73877450449561
C         1.23739217893703    0.15685188277266    1.27741102487638
H         0.95735508176679    0.54805455964596    0.29532818489792
H         1.42431417278561   -0.91627647155236    1.17397628207036
C         3.91947854821920    0.36630466430164    0.39038577225500
H         4.07055876238138   -0.71197128029433    0.47994404903844
H         3.39876615216038    0.56241294780156   -0.55122542791386
C         3.38922297072506    0.06316624358827    3.24636190899988
H         4.42378042402295    0.37630118763712    3.41876996953029
H         2.80203788329122    0.45029558034156    4.08425579131564
C         3.29729406466303   -1.45622669918714    3.21145565815240
H         2.26358674875146   -1.78714651357993    3.15254776300142
H         3.72839070871076   -1.86738425004162    4.12261325036760
H         3.84388701674920   -1.87020869936649    2.36693529457203
C         0.11974128844933    0.43160780508839    2.27461411067540
H         0.38290816916647    0.08658317324150    3.27270903905665
H        -0.79367660801292   -0.07246207711632    1.96495352057246
H        -0.08077390021208    1.49934470136563    2.32594586542845
Br        1.82843023956250    3.25763634787356   -0.41092306942665
C         5.24529211160684    1.11562291169740    0.40596276271540
H         5.05033443712840    2.18901986449170    0.33891641013256
H         5.86552953177778    0.82757719088879   -0.44052612181144
H         5.79701129478966    0.91911755313686    1.32383458438159
C         3.91923030341128    3.26669389302966    3.57575283763951
F         1.45473399758656    2.45659469690351    6.02757628026885
F         1.13800186743856    2.96885020773270    3.97244783231596
C         4.12238313083486    3.26349340897590    6.01002060993206
H         3.63330450132246    3.26188056451588    6.97337254107258
C         6.09418696452292    3.27421630239357    4.66889879549595
H         7.17188187902516    3.28187191626330    4.58514340835653
C         3.35006485969576    3.25932875813129    4.85003981388675
C         5.49838265764858    3.26594000535360    5.92076414579533
H         6.10050608684812    3.26555332515371    6.81627155297480
C         5.31664627434627    3.27646808791330    3.52647714442281
H         5.81412036355360    3.29235304288347    2.56479041696674
C         1.86702486358445    3.29394429141816    5.05434881095403
F         1.43080439708268    4.52153096431703    5.42553891679189
P         2.90915853683732    5.55262489537703    1.69594449349088
C         1.24932775648316    6.26840326295208    1.35830979396845
H         1.01690885334975    6.06301874347001    0.30966604236763
H         1.28068751601978    7.35216382886956    1.49803217404330
C         3.89657929546439    6.21115233366861    0.29119981197798
H         3.82343059779534    7.30142410122668    0.27423747787776
H         3.43683684520249    5.82465804180064   -0.62297062610286
C         3.50857562190353    6.48289814535674    3.17735261100029
H         4.44624439018815    6.01527190643887    3.49171755178079
H         2.77875813597432    6.28817925235120    3.96892163909874
C         3.70680097050873    7.98331455096485    3.00855682954418
H         2.80033751004085    8.46950110778159    2.65520314216349
H         3.96956661697722    8.42493033193571    3.96812161405326
H         4.51125920370913    8.19902284963592    2.30948729113978
C         0.19582739452471    5.62623098207341    2.25257853443408
H         0.39490969919021    5.82380776823185    3.30420847912288
H        -0.79529789342555    6.00552625547427    2.01250150297541
H         0.19247700422433    4.54608666556631    2.09920182622477
C         5.34492063231894    5.74688288825966    0.37473852148204
H         5.37832539763866    4.65738121000721    0.39433978388727
H         5.91027190427095    6.08947801447322   -0.48965152439130
H         5.82834715199082    6.12006590662759    1.27592368184398

