67
CSD_code = MIBCAD | q = 0 | S = 0 | Stoichiometry = C20H37Br5O2P2Pt | MND = 6
Pt        6.35128922641172   10.21731946175767    4.35832599265947
Br        8.01365088666597   10.60041905428930    2.50060213583895
Br        5.85414407602157   12.72605578762896    4.50787951092207
Br        4.70545247217152    9.72673843665211    6.20755783730769
P         4.36118437868120   10.08952794893226    2.98007936488536
P         8.27398523466125   10.69901952238612    5.75445819440627
C         6.75776046247521    8.15930769928376    4.23859779558551
C         7.55484835778315    6.12235385775643    5.24491605950457
C         3.00887554415681   11.21028871567265    3.56788268393143
H         2.80560207589948   10.96002783064069    4.61244211702721
H         3.37733087646657   12.23698632452268    3.54801279895538
C         6.75904997792385    6.09681366902150    2.99627946975666
C         7.19132759571170    7.46644773224731    5.37189088492853
C         6.59106658582681    7.48456533829669    3.02659741666299
C         7.28901656772963    5.42946388774083    4.08150971026064
H         7.49423968625418    4.37247082003951    4.02089183491386
C         4.48610101145965   10.57247527498119    1.20609677263736
H         5.23059994471040    9.94457620691391    0.72427797439216
H         3.51372421194884   10.35776481027750    0.75617391895757
C         9.08828037411962   12.30569038476566    5.32253122661512
H         9.35339877117407   12.26389769995329    4.26285341489661
H         8.35824615428466   13.10767601188608    5.44091686592149
C        10.33261477716786   12.63453736277919    6.13882848681786
H        10.09673560226281   12.80293065580345    7.18671019519784
H        10.76945127141167   13.55178931248001    5.74804151740924
H        11.08632218283381   11.85369998382503    6.06809156377012
C         8.02022970394267   10.89872982326532    7.56857700913735
H         7.59009332603355    9.98312902087260    7.96516314493706
H         9.01205983610283   11.02965353596237    8.00811104859108
C         9.68511325357559    9.52265332388645    5.48167563486320
H         9.30589882445329    8.66738243396316    4.91787470182144
H        10.38754602157010   10.04366589045260    4.82421881122579
C         3.50605072521616    8.44435256605419    3.08670179246829
H         4.19324157917815    7.73738551750388    3.55683321639197
H         2.67477041345927    8.58283601862800    3.78449017431099
C         4.85384484311768   12.03841999472677    1.00777136759548
H         4.10977542348492   12.70648255468888    1.43461631214751
H         4.93057872851608   12.25017853689663   -0.05710796927076
H         5.81612435088709   12.26644174464466    1.45914938755188
C         3.00696959443014    7.85588752609153    1.77438760432792
H         2.24733088682612    8.48172209374838    1.31261268868391
H         2.56647145451770    6.87855005820151    1.96513736768835
H         3.82423419100663    7.72586905547066    1.07094608873341
C         7.12030522287034   12.07727917157981    7.92154261578806
H         7.53267253761399   13.02217120104649    7.57643625800020
H         7.00302418806693   12.13132648039170    9.00222763210193
H         6.13050030142435   11.95876838900061    7.48826766238798
C         1.71310401718655   11.12574461269577    2.76992353325492
H         1.84403519178793   11.46957619798350    1.74670669827628
H         0.97419336057466   11.77066755018194    3.24229855428742
H         1.30804203801478   10.11646890192880    2.75358972536240
Br        8.50945220341132    5.17966607659401    6.60968821005485
Br        6.19576534047070    5.02354144456132    1.51536081776447
O         6.19711777741627    8.21743658323193    1.94777247012899
O         7.30522930666978    8.16974080204370    6.53315553752325
C         6.84449343969132    7.97465507934953    0.70268784422106
H         7.74611883338957    7.37620248811368    0.83023703290744
H         7.14219743380646    8.94347596683667    0.29733260238027
H         6.16756159556663    7.47653281304037    0.00525141964637
C         6.82515923817471    7.56566437421318    7.73020622532244
H         6.20634804637158    6.69413197036779    7.51831110084668
H         6.19987354398441    8.30285316929864    8.23716599844653
H         7.65521917332920    7.27891133353408    8.37949896078991
C        10.39758755987112    9.01996209265302    6.72958810293747
H        10.87402316303267    9.82889110446881    7.27785693152928
H        11.17064526112064    8.31042151506662    6.43879057658321
H         9.70549976362057    8.51102719622907    7.39409936409222

