63
CSD_code = MIBDEI | q = 0 | S = 0 | Stoichiometry = C22H37BrP2Pt | MND = 4
Pt        1.72409005607414    3.24230766114711    2.29122682079731
Br        0.05472233749894    3.24243633018331    0.42681747442726
P         1.66440921203654    5.52509498312665    2.24988192118866
C         3.16560006767366    3.24238739866692    3.71590789649725
C         4.50121275427092    3.24235828833792    3.39769133424096
H         4.82215942071981    3.24238200248389    2.36242202887834
C         5.49012601659450    3.24239453221723    4.39519263852803
H         6.53157945671270    3.24241889502986    4.10271306046656
C         5.14689991061395    3.24240923866384    5.71781088571048
H         5.90644625036327    3.24241404985902    6.48703631738452
C         3.38326162179887    3.24238571089944    7.44887201882708
H         4.14474273943801    3.24240035473672    8.21681903075262
C         2.05889132874045    3.24239102269040    7.78648016910031
H         1.76043093825690    3.24240630341022    8.82514074997789
C         1.07337606673540    3.24241282273769    6.78645709286211
H         0.02973146877620    3.24244252567694    7.06723616829689
C         1.43852704166814    3.24241485488487    5.47061396305324
H         0.68794685421740    3.24242537017792    4.68317474992862
C         2.79513041262895    3.24240981377804    5.08383550627420
C         3.78978822553178    3.24239918028244    6.09807130474567
C         2.62308270813344    6.41271117087228    3.55774885685199
H         2.31332629649027    5.98468793487027    4.51570499206364
H         3.66775262309461    6.12152244916930    3.41334663761528
C         2.49872114878222    7.92937085229662    3.59937428497490
H         2.75620424048708    8.37829034075124    2.64254246218869
H         3.17841693713210    8.32919092392996    4.34989297564693
H         1.49041225387168    8.23587134130634    3.86686346180478
C        -0.01048666869893    6.28498668926798    2.30933624921053
H         0.08664570196898    7.37364698405033    2.29841013491149
H        -0.53082282446576    5.97981717292094    1.39727802830414
C        -0.79048508700795    5.80480363846961    3.52648381972995
H        -0.91486471728933    4.72317570226547    3.47607189653510
H        -1.77989966097034    6.25724373969353    3.55207237172115
H        -0.27159559436813    6.04926509578742    4.45216582605626
C         2.31046160700716    6.19516330773255    0.66291993369646
H         1.57034657938132    5.95116332299184   -0.10489944480922
H         2.40162414284823    7.28286696748605    0.71648591556895
C         3.64136335703199    5.53912557449204    0.31832094871714
H         4.40705367649764    5.79357976292199    1.04916957280259
H         3.98522543821839    5.84759788586210   -0.66701485543345
H         3.51672865002945    4.45398913251822    0.31503327968830
P         1.66438966772990    0.95958594230498    2.24990359536156
C         2.62313345684622    0.07204953261632    3.55776886467122
H         2.31339756070365    0.50007569901127    4.51574244730390
H         3.66780189884169    0.36324557530183    3.41333087842587
C         2.49877709217970   -1.44461209678419    3.59936079214860
H         2.75624839200737   -1.89354913831872    2.64252284978317
H         3.17849431921277   -1.84440440498781    4.34986929056228
H         1.49047451724348   -1.75111751285146    3.86687990920260
C        -0.01052438553021    0.19974552416750    2.30936410688808
H         0.08663020471523   -0.88890497654377    2.29842531463267
H        -0.53087755299432    0.50492120872746    1.39731010952093
C        -0.79050326444755    0.67988246963963    3.52653968937598
H        -0.91487283589994    1.76150949355996    3.47615609560955
H        -1.77991918459661    0.22744499547024    3.55210447640504
H        -0.27161330657974    0.43538645804814    4.45221437812939
C         2.31038417822041    0.28958859249881    0.66288804544417
H         1.57023513797805    0.53359495335072   -0.10490398840867
H         2.40154846244062   -0.79810953275182    0.71644533363145
C         3.64127736475944    0.94562523921645    0.31824414123524
H         4.40700648451413    0.69113800527867    1.04904284344809
H         3.98508647975265    0.63718146353305   -0.66712146133236
H         3.51664232437377    2.03076118085055    0.31500380816698

