129
CSD_code = MIBDUZ | q = 0 | S = 0 | Stoichiometry = C48H72ClN5P2Zr | MND = 8
Zr       20.29772930979035    4.35721942399821   12.00542085067515
Cl       20.08646554794337    6.77769537960285   12.50907810600278
P        21.73431235881381    2.21311539014311   10.94074528312254
P        22.74383927237983    5.21185485863512   13.03679347730801
N        20.86454588139488    3.26515808897017   13.74081551131657
N        19.14562787264484    4.92697246612486   10.26188703752695
N        20.00298948796112    7.08601893355061    6.81084040570432
N        18.29055473679015    4.35319655243798   13.12335924588219
N        16.36527800616894    2.50677542370262   16.33954358357787
C        21.11883369593239    3.47922683316506   15.06687971881098
C        21.81652298745759    4.54583878376926   15.63555191270894
C        21.96196064059909    4.54591861731598   17.00983638061149
H        22.50013695685130    5.36983466736341   17.45782002792451
C        21.44247611500022    3.53965677120381   17.84094026832150
C        20.73927611398979    2.49444509966329   17.26692674188076
H        20.32622063299912    1.69639287617591   17.86414628313505
C        20.56889391453586    2.45435855487636   15.88805256819572
C        19.89776017804763    1.56308620888713   14.98507247746156
C        19.09396441210891    0.42792085013124   15.12320560637370
H        18.93546364746935    0.01941641599781   16.10837969006591
C        18.52150837476224   -0.13612912104642   13.99661113869936
C        18.76629095412240    0.43070124660674   12.73302028082876
H        18.30128782670862   -0.01262510610265   11.86131276441338
C        19.59049556378034    1.53196742020427   12.53660820236175
C        20.13455397175118    2.09852469405392   13.70426433844325
C        19.92844831051286    2.16065963793676   11.25336589116801
H        19.38286683512132    1.72385569048499   10.40288059160328
C        22.32277895727825    5.67922037311271   14.78785265951274
H        23.19352002530482    6.14297944192201   15.26077929626065
H        21.54017600614041    6.44347830234163   14.69671882739348
C        21.67073169032710    3.64905680495407   19.34287510028162
C        23.17948743964531    3.67518104524392   19.62586352117242
H        23.64809368827246    2.77455708667272   19.23445525523837
H        23.36263631588886    3.72318847015805   20.69775157112511
H        23.65477743569997    4.53460135030657   19.16151846568956
C        21.02332337291601    4.94104112434438   19.86223993649142
H        21.44776281837530    5.81737348735952   19.38065825608571
H        21.17503580094123    5.03439318449686   20.93604595042881
H        19.95286406950429    4.93044590046640   19.66483108991967
C        21.06802809008354    2.47465578051455   20.11973212648898
H        19.98880651095862    2.42967462251570   19.98921493372409
H        21.27240591315438    2.59825168965899   21.18177347460278
H        21.50466291443425    1.53136344896967   19.80048577322514
C        17.69548187721130   -1.41716068003903   14.05653416822168
C        18.46630324020046   -2.52146009491244   13.31658594890591
H        18.60925818058891   -2.26564783689621   12.27043040649043
H        17.92535446462146   -3.46502364381454   13.36913669730769
H        19.44676148509987   -2.65756609760339   13.76809991422146
C        17.45097513207763   -1.90104833903344   15.48940817572878
H        18.38834447275788   -2.15275413763618   15.97914659297069
H        16.82979021134284   -2.79537383691242   15.47283018746749
H        16.93901811178728   -1.14532939686194   16.08175316667084
C        16.32970294754007   -1.21867864699200   13.38408487150548
H        15.76191979743619   -0.44174888878204   13.89185862311795
H        15.75473259847246   -2.14265956204915   13.42247810345187
H        16.43706892270653   -0.93262281131065   12.34187428948163
C        21.68501011912916    2.34268930186255    9.05360379233398
H        20.84835136103056    3.03664393653083    8.88181004428290
C        22.96435066364050    3.02523756504607    8.57505686586329
H        23.08787297970119    3.97352234879139    9.09792437080254
H        22.91774234187515    3.22255490272422    7.50424352343128
H        23.83461855162826    2.40082227904623    8.76815246348778
C        21.41999333327344    1.07094341239247    8.25848428205339
H        22.27443766997736    0.40020775135946    8.29494131325562
H        21.23989073263701    1.32436589811800    7.21292548433801
H        20.54355510552418    0.54889023348670    8.63304431034243
C        22.37279510034292    0.46283223549166   11.38184394845016
H        22.31042471381826    0.52406730128155   12.48071782480530
C        23.83946573233602    0.28368694363506   11.00589551624183
H        23.95729002740253    0.19009985063394    9.92854938402524
H        24.23822758123864   -0.61996492054447   11.46679084927461
H        24.42877348300235    1.13108149371651   11.34544031719875
C        21.54053631763471   -0.74080079645606   10.95149123929972
H        20.47999878404604   -0.51891173483017   11.01728479027577
H        21.74544100547255   -1.58132441212613   11.61463565283371
H        21.77714361973211   -1.05131273440255    9.93818162743896
C        23.68521705465655    6.75325890128041   12.48268674801608
H        24.75205835598782    6.60221613231709   12.68673991462944
C        23.45869670750644    6.84658578888824   10.97467812677931
H        23.73471493094604    5.91555860382275   10.47979329980837
H        24.04159389126806    7.65879186423972   10.54108889895056
H        22.39985966762949    7.03354651832402   10.79174942311260
C        23.23725801060397    8.05286321090056   13.14245157507576
H        22.16112197730469    8.17163990471981   13.04323879836840
H        23.72195747571562    8.89278273604210   12.64548422133455
H        23.50699772124406    8.09185501596892   14.19446376469949
C        24.14904868969538    3.99491409175294   13.34826500130979
H        23.63291089305089    3.04735951606399   13.55598246198927
C        24.96901587013063    3.81703965799789   12.07316378880836
H        24.30919221163547    3.59059742948567   11.23532278005782
H        25.67700845905979    2.99738912966921   12.19188128132142
H        25.53947436773070    4.71381218068057   11.84140358304096
C        25.05155123451954    4.32729674333442   14.53257209889362
H        25.45627084248255    5.33506501728652   14.45439220063186
H        25.89028258270006    3.63222611062149   14.55660385952735
H        24.51455752492488    4.23172158202799   15.47235936390094
C        20.45449198842730    5.16332975205141    9.94289044127036
C        20.73422132275749    5.89743692891086    8.79438272635647
H        21.76871466499761    6.08797673618743    8.54820364833439
C        19.72016444939254    6.39299609014380    7.95519618680017
C        18.39663458246557    6.12235240013046    8.34494267339317
H        17.55320186888117    6.47749575785578    7.77654865652939
C        18.16825377362764    5.40100505539309    9.49589692777192
H        17.14830448634747    5.19774816602881    9.81488358507767
C        21.35922098510171    7.49789338440449    6.53751010614767
H        21.75806937049272    8.14053349525926    7.33025077771483
H        21.38792412416160    8.04932532493837    5.60066487636961
H        22.00979261302505    6.62607309243680    6.43581697984169
C        18.93837833715338    7.70877775702256    6.06156592835887
H        18.21876918919618    6.95811117820338    5.72662912870691
H        19.35108320950838    8.19229594119766    5.17905286921903
H        18.40740335732324    8.46392972144673    6.65277864145580
C        17.37048251497567    3.39919390938315   12.93413743874195
H        17.18512395588193    3.12056072284505   11.90012902861676
C        16.66639723532247    2.79339761630276   13.95042960297635
H        15.95221783243890    2.02700507277088   13.70332063845067
C        16.94936367739373    3.12356543507903   15.28946564675885
C        17.87240538145245    4.17278733964091   15.47641858817868
H        18.10154665389640    4.54364432066986   16.46088007363606
C        18.49224753753003    4.74199171181225   14.39234840932973
H        19.17028315314936    5.57905340386049   14.53687097946181
C        15.23602562571653    1.62722178789396   16.17140738222199
H        14.55835678242388    2.02091115096541   15.41386508885717
H        14.69093392138460    1.56673607854941   17.11246590794743
H        15.54554520391866    0.61783145220577   15.88076553982840
C        16.93680157351478    2.59719126955961   17.66277199968860
H        18.02198628695428    2.67710771696023   17.59867669184027
H        16.69528826464470    1.69112925208198   18.21699383181400
H        16.54485228464032    3.45829518943880   18.21472444022104

