137
CSD_code = MIBDOT | q = 0 | S = 0 | Stoichiometry = C52H78ClN3P2Zr | MND = 6
Zr        9.54367076835260    1.83801493179292    4.84185887171279
Cl        9.60927704232739   -0.19073181460450    6.08937230098970
P         9.95569609690208    0.41251274894322    2.59328881993128
P         9.51639374156834    3.22010032482510    7.15416219902803
N         7.41957000683801    1.64075965874591    4.75979165864719
N         9.57724132826359    3.56995411922693    3.76369349895404
N        11.55998914924479    2.23619442693237    4.79932056831961
C         6.75390127031262    1.67639390999228    5.97113166440168
C         6.82719830049703    2.62828774370161    6.99938464504052
C         6.02120670224341    2.44040755655892    8.10937288321139
H         6.07828567073390    3.18080693796809    8.89492466421173
C         5.14242415331641    1.36065215647845    8.26415025194980
C         5.05650117911701    0.43622014934977    7.23909577572144
H         4.39308117665732   -0.41105466108157    7.29255867433563
C         5.83944412005414    0.59603627979562    6.10410427617103
C         5.95591635370827   -0.15826834928934    4.89231669449914
C         5.32667475065272   -1.30243566644982    4.42977870082049
H         4.60014168511214   -1.78981618973340    5.06203171532662
C         5.63111084788057   -1.79870376694213    3.17151595775940
C         6.57121775816291   -1.10997398397366    2.40101742027184
H         6.80564515139935   -1.46638800234500    1.41022550193277
C         7.22957917262709    0.03320821717234    2.83123148991070
C         6.93415338341163    0.51953749887643    4.11197730328654
C         8.23324109389308    0.70333205269605    1.93712460281457
H         8.07631721971665    1.78987841441445    1.93994340078614
H         8.14242548563457    0.32779023315812    0.91203342337066
C         7.75787070823422    3.80471050249248    6.93111646555115
H         7.49608483135591    4.54482721968998    7.69525140889863
H         7.70537273210708    4.27290136654894    5.93950021525239
C         4.33389807175046    1.25579548278772    9.54905716729306
C         5.29672464603239    1.17755835493315   10.74299684867574
H         5.96065404056504    0.32267544328684   10.63170376310296
H         4.73861668456776    1.06398833554700   11.67046085682222
H         5.90574406780877    2.07410026666015   10.82119363820289
C         3.43297989771627    2.49119384726152    9.68713443226615
H         4.01784963937260    3.40550274727441    9.73960033638519
H         2.83146893370596    2.41972158625847   10.59134146281949
H         2.76449297068786    2.56425532621576    8.83178463656444
C         3.44170810066952    0.01210496943203    9.57816966696328
H         2.71613446884047    0.03369064384320    8.76837857929293
H         2.89513539625536   -0.02261245087528   10.51894554827281
H         4.03634214312088   -0.89495959163504    9.49999298692101
C         4.93799266067950   -3.06037600520208    2.67618409289058
C         5.24336799175771   -4.21110804221863    3.64551318731591
H         6.31723450507712   -4.37645082229245    3.70552956323368
H         4.76972242743307   -5.12935492102762    3.30317043104882
H         4.87899765674508   -3.99189734285338    4.64498157560715
C         5.39736026583804   -3.48653088940345    1.27865339678415
H         5.16983418075053   -2.72103727595061    0.54006555673349
H         4.87538293616188   -4.39654285967511    0.98844085794170
H         6.46520111555539   -3.69329025534594    1.26367816088170
C         3.42360443125718   -2.81415570711565    2.62414620852505
H         3.03165676445668   -2.56534647438685    3.60629406002093
H         2.90824886732709   -3.70325326159306    2.26565857019629
H         3.20023736720958   -1.98910681743717    1.95053282354790
C        10.97978562107855    0.89567410274563    1.09580980641331
H        10.79540738777705    0.16663999870484    0.29861258428906
C        12.45830663322372    0.87877056214927    1.47840531040644
H        12.64064563512949    1.56305014672105    2.30612566255509
H        13.07159781634140    1.19096331571696    0.63397079636097
H        12.77994344781932   -0.11572868340836    1.77835431795039
C        10.58720321418481    2.28371833499094    0.59607579714075
H         9.58006032837194    2.29671719627940    0.18612751777821
H        11.27096940758025    2.59479433479719   -0.19290597754344
H        10.64953701930815    3.01329929976437    1.40152599307510
C        10.00213913565173   -1.46472394130822    2.63232513159790
H         9.07545958537096   -1.72053047004502    3.16780607528402
C        11.17568274972170   -1.94604479635299    3.48484127001088
H        12.13012012362902   -1.74474723939906    3.00252454143424
H        11.10053448448626   -3.02017034841073    3.64710816227425
H        11.16190500653767   -1.45365842457792    4.45680460294789
C         9.99337361425819   -2.15574320341725    1.27218358873729
H         9.20979899538170   -1.76554893775807    0.62673525657776
H         9.81279534733299   -3.22047986208834    1.41067750398108
H        10.95215479863780   -2.04502930474318    0.77007177942345
C        10.37501810922656    4.84967520838041    7.51678451164813
H        10.00475251458167    5.23269049668983    8.47458579578878
C        10.07293425587307    5.87331352799366    6.42528952862669
H        10.32645143475771    5.47392490290647    5.44463964430394
H        10.67100287929204    6.76916697514303    6.58855482975513
H         9.02627917648071    6.16871667892802    6.42546335583392
C        11.88090980906854    4.61096051157373    7.60464870192475
H        12.12919923206756    3.93554388418601    8.41992268330394
H        12.40416769354916    5.55112034761527    7.77493493848288
H        12.24821960421123    4.17800447709242    6.67510200248974
C         9.38850580604658    2.35529876177258    8.81672313772246
H         8.50912546331016    1.70641469926261    8.68923843384308
C        10.60091680331172    1.45049459677710    9.03405017838999
H        10.73829641417595    0.79316820592073    8.17606527132469
H        10.44744677036630    0.83066476702406    9.91596492585845
H        11.51086270735287    2.02829466675275    9.18271145017035
C         9.15917533149826    3.26417334382278   10.02045939677683
H        10.05998856117615    3.82138793484247   10.26879825271800
H         8.89558438124162    2.65616880951814   10.88439897685667
H         8.34724202588202    3.96677264716397    9.84595375725405
C         8.52792781604757    4.24149115142122    3.23267979374012
H         7.55014245489804    3.79568667059684    3.42596220303288
C         8.62587680614135    5.38571362934820    2.50880673129085
H         7.73190121000881    5.84911003737288    2.12622081946178
C         9.91741698939413    5.96847573387971    2.25853462911793
C        10.99268907421183    5.32268103776888    2.77883759473708
H        11.98902820832562    5.70183388444604    2.62984981902251
C        10.86726028698620    4.11863971337320    3.53929882556405
C        11.92450949508654    3.40535793661872    4.09869755808387
C        13.30481117728653    3.76763301691766    4.01752261114038
H        13.54467261570347    4.66695122734989    3.47673040101367
C        14.28182168746628    3.01984838387567    4.59501676986086
C        13.87110963873093    1.83656085015572    5.29733320796323
H        14.59758306321755    1.20161416560658    5.77548733535407
C        12.55155353866893    1.51272649153866    5.36133370886136
H        12.22696650236998    0.61771369146076    5.89287293180564
C        10.00083600012904    7.24270784819714    1.44175040395698
C         9.40664373457379    6.98462532523553    0.04959077137498
H         9.96024709641200    6.19380654306105   -0.45296057723876
H         9.46255705583903    7.88636799220778   -0.55698178847486
H         8.36523379790357    6.68209460554946    0.11532864271647
C        11.44038835561331    7.73234849682205    1.26463265302387
H        11.89836644546089    7.95152446153174    2.22645137850375
H        11.44445021994395    8.64564595660769    0.67277877007526
H        12.04288795298468    6.99089693920733    0.74493815679376
C         9.20195405296562    8.34585963765892    2.15041967961812
H         8.15656959873377    8.06964519772663    2.25615027184370
H         9.25438163888370    9.27279497772408    1.58275634180547
H         9.60965964773283    8.52404344735209    3.14356123204915
C        15.75785009591288    3.36448112662240    4.53961363591645
C        16.51382540115684    2.21731243175172    3.85448730871603
H        16.39293614799655    1.28520798113021    4.39907912651498
H        17.57634426241831    2.44614866752957    3.79986157325205
H        16.13818485515419    2.07234241560194    2.84345225368484
C        16.28147294603052    3.55006256784331    5.97088887737721
H        15.73785550341215    4.35128514733234    6.46774489237136
H        17.33882408122618    3.80703298178991    5.95464217887150
H        16.15969582017956    2.64281549259980    6.55575844239040
C        16.03274726278674    4.65245718254961    3.75890767119845
H        15.69986663799316    4.56187178849932    2.72748316119204
H        17.10248751639536    4.85267660994496    3.75166054640296
H        15.53404187028976    5.50191073104912    4.21996650076682

