69
CSD_code = MIBDAE | q = 0 | S = 0 | Stoichiometry = C26H38Br2P2Pt | MND = 4
Pt        1.87780836102356    3.63406064326306    3.64774053344427
Br       -0.54569480832810    4.23417137079408    3.70944151485491
Br        2.75111745868468    0.57155690240904    3.25409837557661
P         1.89440259126038    3.24013252541940    5.90934549326884
P         1.82744787496598    4.28008806530972    1.44653651783350
C         5.87646748387487    0.04469376986067    3.06454703570926
H         5.08453117077035   -0.68632678926475    2.99800636453834
C         7.18335545117737   -0.35561960629471    2.95902389993319
H         7.42015683877294   -1.39852717458884    2.81081843747654
C         8.20538165556047    0.58817105699606    3.04268551807562
H         9.23559527146130    0.27503908712566    2.95904319041904
C         7.90502045820353    1.91462335121384    3.23047035307390
H         8.71569090341400    2.62323730759808    3.29094150964685
C         7.20081825048946    4.76984175598953    3.64254905801367
H         8.25011674978905    4.53040523865770    3.57199612033052
C         6.84136581134836    6.08171946832104    3.83223546236562
H         7.60461409831437    6.84258412776520    3.90620097823634
C         5.49630938430010    6.43959478686266    3.93059268592632
H         5.22080666300229    7.47311748895939    4.08133184551220
C         4.53586819791586    5.46771663571481    3.83463589278778
H         3.48138025300440    5.71975269980011    3.90773391172556
C         3.83670308776066    3.14396549451727    3.54361571666596
C         4.20036253161848    1.84874299154281    3.36541209605967
C         5.54571362641139    1.39450115599975    3.25665735724255
C         6.58004755298763    2.36207152116754    3.34299576047403
C         6.24044235056216    3.75024757099657    3.54091698193426
C         4.87804008395396    4.11955675517970    3.63924881622260
C         3.24415389386620    2.17431685541028    6.59092765126329
H         3.18065825750701    1.20589994468586    6.08831841402285
H         4.18595559806444    2.63930301992620    6.28027157714749
C         3.24643123033917    1.96084971815127    8.09881658006963
H         3.31467690864072    2.90493097186853    8.63395780263645
H         4.10775189393760    1.35526610049855    8.37601012574791
H         2.35250788929892    1.43583566772356    8.42586643001112
C         2.12658774321908    4.79977576216635    6.86468315259321
H         1.87753869866281    4.61642643982170    7.91349154790489
H         3.18822833687546    5.05987756236775    6.79806326164551
C         1.27645469920232    5.93742019532833    6.31280701514301
H         1.48500399052143    6.08753084392606    5.25254919034058
H         1.49057912073870    6.86607284105701    6.83879218572039
H         0.21579710227294    5.71923186824052    6.41547932126389
C         0.35716401395086    2.53613789259939    6.62977945103928
H         0.47606541010107    2.44173349632974    7.71257776572710
H        -0.44614788096048    3.25107790964151    6.43403865178275
C         0.01420474779776    1.19935472994099    5.98399061328804
H        -0.07716242220946    1.32065221377536    4.90512670417275
H        -0.93466021277750    0.82572384521525    6.36234589125884
H         0.78269379386794    0.45360865549297    6.17833129095988
C         1.48177809238838    6.09269119621395    1.34004890873705
H         0.69289416310268    6.30778368883549    2.06701346943328
H         2.39316639093464    6.60111758127208    1.67294601725350
C         1.05810117088788    6.62255276793307   -0.02458545733228
H         1.81049696324611    6.43140422491381   -0.78648677138394
H         0.91307992424134    7.69957811173181    0.03732830218325
H         0.11951429249133    6.17666011650026   -0.34287073946665
C         3.33373471779340    4.15828465390961    0.37742161885172
H         3.17418828122438    4.77507477882662   -0.51115677473252
H         4.15750891065521    4.59879901708388    0.94842656322394
C         3.69678341020625    2.74127648577244   -0.04483393490217
H         3.77921581061824    2.08691154471651    0.81863884713034
H         4.65630713372501    2.73845712126268   -0.55978499040305
H         2.94898010045793    2.33189785575693   -0.72005477752596
C         0.49064221373130    3.51260518797781    0.43862158998925
H        -0.43055754974368    4.05437044013702    0.67117997115758
H         0.72137698193780    3.64593634271628   -0.62234172087317
C         0.29826277992092    2.03991603460390    0.78475576833791
H         1.17885022471206    1.44872772380936    0.54650770206415
H        -0.55032867070698    1.63078710319592    0.24014994370524
H         0.09635249291978    1.93222328735150    1.85043041346873

