165
CSD_code = MIBFEL | q = 0 | S = 0 | Stoichiometry = C66H82B2F4N8P2Pt | MND = 4
Pt        9.99482330650998    3.42091124528967    7.03844007524395
P         8.57979267509349    3.83172866108883    5.29415424564827
F         1.95908993464906    0.64768466086847   10.81557868444413
F         2.60481421191664    0.59616383531196   12.99107177546057
N         1.35139577374536   -1.27225932739977   12.11400893049079
N         1.68613468469656   -2.51309862575539   12.29508226339686
N         3.70961937196026   -0.87405733131335   11.42846831995349
N         3.91209838540007   -2.13367921133863   11.64202024923467
B         2.39443528819004   -0.15941711544852   11.85034998554225
C         2.94708206322833   -2.88957792499910   12.15797067054261
C        -0.01748857391327   -1.00635241663172   12.11280830055030
C        -0.47913017249704    0.29258738763433   12.32423512472028
H         0.22265019794675    1.09291092520193   12.48647610477339
C        -1.83769701893296    0.54095482695534   12.33937380023100
H        -2.19171664704134    1.54730229323240   12.50577112562555
C        -2.74462035759559   -0.48931681313592   12.14847517160839
H        -3.80522958723934   -0.28699587690033   12.15987167578340
C        -2.28606060753485   -1.78197515280183   11.94166336863836
H        -2.98956660970309   -2.58728924429552   11.78965638308054
C        -0.93244967773458   -2.04476562659889   11.92166507065207
H        -0.56011676047131   -3.04301417122158   11.75206634551026
C         4.70767335231172   -0.20112890411637   10.74197086119839
C         4.77500067294565    1.19603010891533   10.78431800490494
H         4.04611898658773    1.75097646107131   11.35001700169628
C         5.78243342154254    1.85512689284191   10.12302114440592
H         5.84032159075997    2.93357807421657   10.16011483585490
C         6.74918059568307    1.14610833423355    9.39748177503326
C         6.67819561587021   -0.25458126015023    9.36370016469475
H         7.42134542911561   -0.80606105272773    8.80477056256278
C         5.67550583515100   -0.91757534290739   10.02380171916785
H         5.60631077132880   -1.99393400533949    9.99277190222956
C         3.28115616859373   -4.27673257000176   12.48691180270170
C         2.30912725410941   -5.13112679547186   13.00370042896711
H         1.30988823313150   -4.75446820174386   13.15548747365171
C         2.62797249965016   -6.43777234242740   13.31920316437099
H         1.86908251313570   -7.09428671068362   13.71937944373276
C         3.91737320982560   -6.90760444101340   13.12698757526329
H         4.16439314248389   -7.92934892877933   13.37545371471463
C         4.88983389334466   -6.06125433545818   12.61931252262175
H         5.89699654224943   -6.42384573849675   12.47266341391147
C         4.57735867902843   -4.75350907619849   12.30155845641944
H         5.32923459038219   -4.08619997765360   11.91083755289176
C         7.76407969321210    1.82772032596345    8.70392524817097
C         8.62334673870642    2.41441370728749    8.07432005799276
C         6.86414734037342    3.16597865801362    5.31300128501527
H         6.40975146016392    3.51467725215127    6.24550973825108
H         6.30415294996603    3.59286038321908    4.47507132493702
C         6.82944274486998    1.64061124947948    5.28035989737250
H         7.05804937464974    1.28496322768429    4.27314368765949
H         7.59617706961748    1.25705150503388    5.96033558330678
C         5.46957359928117    1.09756688231021    5.71336961604198
H         5.25183495122659    1.44673945596876    6.72504914929601
H         4.69301173250440    1.48792118626818    5.05091596733266
C         5.43821825473317   -0.42505119556552    5.69384177369681
H         4.46759070655943   -0.78981458392287    6.01996696403330
H         5.62921196247393   -0.80207732735766    4.69108521001846
H         6.19606247563690   -0.82551278144025    6.36287169677688
C         9.24130762419416    3.38913993094200    3.63530623370346
H         8.42682378817080    3.29704925579482    2.91194432469844
H         9.89012009422967    4.21418066641125    3.32696892640154
C        10.07357660893592    2.10963277777099    3.71398258028411
H         9.42402622611382    1.24459215354228    3.86256310489652
H        10.73616660965363    2.18643176117572    4.58589831926195
C        10.92500607635119    1.90323360275526    2.46449910767689
H        10.27535146122363    1.81225600324360    1.59043306808687
H        11.55922250496215    2.78030812603631    2.31705232730042
C        11.80130331274556    0.66234413183975    2.58006348108671
H        12.40831617171441    0.53838412518887    1.68685606613769
H        12.46420301613623    0.74755259279713    3.43792368502926
H        11.19127850054499   -0.22952848462241    2.70616932083484
C         8.29679956272137    5.64478555812949    5.19298964289657
H         9.18645175958855    6.08613560172007    4.73438792084496
H         7.42962170994057    5.87289741181549    4.56713616799447
C         8.13014131964338    6.19610991906561    6.60851402103264
H         8.96707802496684    5.82184003786486    7.22024222740734
H         7.20214147773876    5.82086204474944    7.04699298104053
C         8.13049866920023    7.72107884374452    6.64419574505098
H         9.05289834983906    8.08942208244606    6.18955145717569
H         7.29444446938535    8.09867120203386    6.05035052631833
C         8.02331909720712    8.24896162894869    8.06936869039281
H         8.03361293255352    9.33601292772489    8.07741194342021
H         7.09926335721855    7.91240231738279    8.53386954358452
H         8.85755381468340    7.89145730982320    8.66852466183067
P        11.40950097573313    3.01063383008617    8.78266959102345
F        18.02999435253942    6.19450181228411    3.26061783960592
F        17.38394994886646    6.24600942340435    1.08521233750980
N        18.63759304055487    8.11437724810970    1.96205799494686
N        18.30288836588345    9.35522726872571    1.78100611659270
N        16.27945912026238    7.71631385861645    2.64796751065149
N        16.07700651650904    8.97594910449319    2.43444717372319
B        17.59453701901537    7.00160444730394    2.22588811431923
C        17.04197958428304    9.73177717970964    1.91830107360941
C        20.00645689472649    7.84837653971138    1.96317822750134
C        20.46797616723832    6.54938318901796    1.75180845671886
H        19.76612234425733    5.74912466525127    1.58956692275303
C        21.82651598923240    6.30087181535400    1.73675612788061
H        22.18043727242536    5.29447584671532    1.57044317777829
C        22.73353451186783    7.33105958378429    1.92765547794038
H        23.79412213119184    7.12862003454266    1.91636750462902
C        22.27509918854383    8.62378453366512    2.13432593961926
H        22.97868225309161    9.42903724470727    2.28630093882431
C        20.92151401440977    8.88671710846880    2.15424977161666
H        20.54927259352221    9.88501601793497    2.32375456046644
C        15.28150701705952    7.04338973975370    3.33461965960476
C        15.21414702382669    5.64622956282589    3.29223712055970
H        15.94292962267939    5.09129165576848    2.72640170726037
C        14.20674909630297    4.98711907982674    3.95358090209076
H        14.14885663345800    3.90866906520634    3.91644346923025
C        13.24002284733076    5.69613211434121    4.67916117625943
C        13.31114021099944    7.09681296649608    4.71311037390991
H        12.56807793840287    7.64827149297580    5.27217460857904
C        14.31379188707221    7.75981979297897    4.05296055094222
H        14.38300148634911    8.83617631892205    4.08402063061764
C        16.70795487038622   11.11892775910083    1.58928223582665
C        17.67998559668618   11.97317971818218    1.07225461244497
H        18.67918113708857   11.59642773243297    0.92041562358598
C        17.36120138659388   13.27979700387153    0.75657870481365
H        18.12009656150475   13.93619399594324    0.35621890790469
C        16.07185473364646   13.74975034538779    0.94886177837568
H        15.82487733057143   14.77146969170492    0.70024839342924
C        15.09939867932220   12.90355318750636    1.45679948978564
H        14.09228005585545   13.26624413230059    1.60350626109494
C        15.41181366829982   11.59583319181161    1.77472667650213
H        14.65993045561730   10.92864434631001    2.16563964529035
C        12.22510349003460    5.01459656668378    5.37277598341759
C        11.36592565422473    4.42783425730390    6.00243421180290
C        13.12516437028975    3.67628425282208    8.76371948735849
H        13.57948572191703    3.32751099683552    7.83120008913233
H        13.68510338011511    3.24934008958528    9.60164726461578
C        13.15994114190739    5.20164481913679    8.79640105960729
H        12.93121298238994    5.55730654941284    9.80359118623693
H        12.39332558023204    5.58524513759274    8.11631346001707
C        14.51993768790079    5.74449463821344    8.36355424810399
H        14.73781337774413    5.39525288340536    7.35192235233088
H        15.29635138782931    5.35410349990531    9.02616322532802
C        14.55137102286651    7.26711076395546    8.38305354217992
H        15.52213179128199    7.63176214211114    8.05721009093188
H        14.36010968495484    7.64420978465939    9.38573544844938
H        13.79377578398653    7.66761808219473    7.71376693919978
C        10.74788212820572    3.45332193667992   10.44145608106047
H        11.56235752105353    3.54532029185475   11.16482895248255
H        10.09897717812347    2.62835422141939   10.74979988068765
C         9.91574506253033    4.73291839220167   10.36282113704721
H        10.56540720566914    5.59792630427070   10.21455010993046
H         9.25337074472570    4.65632843430247    9.49072094893739
C         9.06400783321752    4.93921894698861   11.61211252371474
H         9.71344043023065    5.03012057708504   12.48635130787127
H         8.42976574700337    4.06212445232952   11.75931574687874
C         8.18771407025498    6.18009978764119   11.49644632839752
H         7.58047577743205    6.30397396986012   12.38951343283978
H         7.52503449261800    6.09494742496588   10.63841056087619
H         8.79776080592183    7.07198861844426   11.37056571082939
C        11.69213227158025    1.19752869406106    8.88375531397372
H        10.80242478609997    0.75627721640436    9.34235688164504
H        12.55928782111280    0.96930620553331    9.50959207773339
C        11.85869796742388    0.64629850604780    7.46818260704546
H        11.02180788994372    1.02070769004666    6.85647216897963
H        12.78675245897651    1.02144004552888    7.02972620591917
C        11.85814592784422   -0.87866910509639    7.43244023813623
H        10.93572420513656   -1.24691771454192    7.88711870873077
H        12.69419048140592   -1.25642802740122    8.02619764346193
C        11.96514365674474   -1.40644386866167    6.00721451812786
H        11.95462769304563   -2.49349205629482    5.99908796152834
H        12.88924345170564   -1.07003466372956    5.54269153468518
H        11.13094833914548   -1.04872104886108    5.40813097773843

