93
CSD_code = MIBMUG | q = 0 | S = 0 | Stoichiometry = C38H43B9OsP2 | MND = 6
Os       13.15661553547248    4.91914691781808    9.22469040291254
H        13.33131076770951    6.13878707313180    8.21483160121841
H        13.46639476936490    5.56957312678009   10.64302011792550
P        10.96993265558740    5.63423168562043    9.38444116244628
P        15.41611853631247    4.54972926237516    8.87982708190580
B        12.27032119167530   -0.36494352092261    8.57209720397619
H        12.66681725042607   -1.44955261755676    8.34473675440374
B        12.19745480077167    0.81995771284695    7.27782601731846
H        12.48280861114730    0.67647433946227    6.14615648119255
B        10.69012670153977    0.24237548906502    7.99560328575106
H         9.84673751067114   -0.32574248113170    7.40611405326483
B        10.96234851485424   -0.03451420686217    9.73939040575201
H        10.31162484747904   -0.79439794428734   10.35607333153127
B        12.63608375820849    0.39370527027027   10.11455243847480
H        13.24894593941465   -0.04796578637975   11.01480501411501
B        13.31707733687357    1.14798876267175    8.63882084813074
H        14.48883528951853    1.15321762704616    8.48963608733961
C        10.90672355791145    1.85276921909777    7.67208490060801
H        10.26750869042620    2.30816039148987    6.92502284151441
B        10.33960483160886    1.66975167928063    9.18280216696822
H         9.30727212256931    2.17380731528188    9.42935599694664
C        11.32828996875494    1.42030148875031   10.43883089875895
H        10.96104230240783    1.61288033702976   11.43952452285698
B        12.57081367059430    2.17651299842560    9.84453254695966
H        13.08225077410530    3.04635222918030   10.47916133314898
B        12.31438110582894    2.45262610228493    8.02871172038096
H        12.67141129274791    3.46591224902177    7.50552168446691
C        10.79975934850357    7.46458392981773    9.31326634105216
C         9.81064369856370    8.12673416305395    8.59567917050309
H         9.10271725099394    7.57065143235483    7.99626586829932
C         9.73400600826005    9.50890532238427    8.63007437946309
H         8.96319731940894   10.01573329797023    8.06689589789948
C        10.63846730454526   10.24002294447207    9.38001697297523
H        10.57346404854889   11.31810378381314    9.40380700286423
C        11.63038979077414    9.58498523118663   10.09293244718534
H        12.34229386055976   10.15327915363489   10.67343302953945
C        11.71078524476431    8.20594746001822   10.05899894147401
H        12.48909151857256    7.67478155467432   10.59168347275164
C         9.89393818639981    5.36944272648008   10.85214355604820
C         8.63885802026202    5.95996195027891   10.97056582456794
H         8.26930736412466    6.60067263859363   10.18259237249842
C         7.86864695368635    5.73735984380458   12.09688909440830
H         6.89284796909146    6.19420187451651   12.17924802277339
C         8.34548911234360    4.93516449900363   13.12174991169139
H         7.73947769093827    4.76245251137659   13.99905089873208
C         9.60552694025678    4.37012217900889   13.02475672048218
H         9.98830228085976    3.76180473525750   13.83177441758900
C        10.37539531740580    4.59098778464723   11.89638276319839
H        11.37194082698341    4.17788206172997   11.82260119879431
C         9.86175237688808    5.17813753238161    7.99464680683733
C         8.62709906626270    4.55250088522322    8.11344371254529
H         8.21305368933570    4.34771668495977    9.08995626597739
C         7.91619887535925    4.19274382355020    6.98031943995739
H         6.95640700978667    3.70701303678361    7.08360606325949
C         8.42958748890585    4.44936702462351    5.72046586033136
H         7.87208853275409    4.16410877631281    4.84034199167656
C         9.66268376207087    5.07171134577976    5.59257394984381
H        10.06763586567292    5.27435910583749    4.61162742715342
C        10.37367811074598    5.42772308432991    6.72164774133023
H        11.34000378594632    5.91116110792386    6.63588693558016
C        16.53220161952313    5.87924017395078    9.47474089297799
C        17.89784871597112    5.66516800258307    9.63578231567842
H        18.32255296332437    4.69366151984669    9.42377731086697
C        18.71580841451397    6.69422146525371   10.06605703906531
H        19.77514363632178    6.52121071631028   10.19100560856680
C        18.18057263057304    7.94343041430495   10.33503300177175
H        18.82310458652871    8.74404719088058   10.67178007587241
C        16.82245643678567    8.16238677881695   10.17092841042487
H        16.40358370577652    9.13633483859290   10.37741622805994
C        15.99964963231142    7.13531081255225    9.74349198897516
H        14.93453015697060    7.28230381324787    9.61088103041461
C        16.28804806820577    3.12484333866782    9.63933831271508
C        16.04735915291384    2.94235722572294   10.99845443630956
H        15.40078369155862    3.64474853207639   11.51110772251450
C        16.62906600442392    1.89292460406993   11.68204753853805
H        16.43720460505734    1.76011301617214   12.73681094679973
C        17.45886264640643    1.00897408816804   11.01057117672338
H        17.90997789899168    0.18177786223092   11.53837665086310
C        17.71331369067842    1.19148838701681    9.66212228219226
H        18.36834182718626    0.50956891704834    9.13912395403780
C        17.13421237457432    2.24530003434858    8.97607905983945
H        17.34698402156448    2.38262380202040    7.92542013541012
C        15.93667978759314    4.46672984707351    7.12326006950780
C        15.59930962342937    3.35110939853080    6.35922014364989
H        15.09918339417949    2.51257035833785    6.82214337401449
C        15.90150236891045    3.30455245973610    5.01084217057675
H        15.64267235523854    2.42840291529820    4.43362366844563
C        16.52873024106299    4.37893349398082    4.40127957943903
H        16.76442972899578    4.34297907627552    3.34769927217702
C        16.84224575838852    5.50269822700688    5.14723987056438
H        17.31987882062860    6.34878112247078    4.67452696922348
C        16.54414582868445    5.55097527015148    6.49742508820487
H        16.78172865916025    6.43586409167670    7.06959827611585

