85
CSD_code = MIBQEU | q = 0 | S = 0 | Stoichiometry = C34H48N2Pt | MND = 5
Pt        8.91224286581615    3.00580745754209    7.46618220738347
C        11.70048618574328    6.43199066406039    6.62366715039167
H        10.98039796589316    7.23650563192393    6.60094863738029
C         9.03448953488139    5.97024515722035    6.87006262735399
N        10.88949042616920    2.24947364635713    7.94994958602534
N         9.91458526592982    4.87435456672807    6.99868007192424
C        12.21947065008054    4.09884781851063    7.05117725304575
C         8.68418440314469    6.47280934204101    5.60645519685339
C         7.93339358331950    1.29651579400165    8.09117103459858
H         7.15225867243802    0.93994892811740    7.42111126392028
H         7.46236676956957    1.53157409232564    9.05140209932209
H         8.63170514466244    0.47473650085540    8.24945835602845
C        13.57120077628475    4.42344446197179    6.78867609760000
H        14.30406446717688    3.63275476607101    6.88121209667132
C        13.01646909008323    6.70293641104423    6.40149243782403
H        13.32678605157219    7.71731320158264    6.19256528368352
C        13.97546160986571    5.68030252835891    6.44721973770998
H        15.01356343553014    5.89635325920590    6.24815577727059
C        12.00071662287264    2.81126852040570    7.58628915123378
H        12.92095670454621    2.25319300610669    7.78921986379381
C        11.21706209834428    5.11229882051215    6.88599929612144
C         7.64005697446833    7.63050764003708    7.91601924046010
H         7.23039092928881    8.09099577236151    8.80153235851799
C         7.82272539361734    7.55755607039605    5.53332718948456
H         7.55184214205876    7.95760814461801    4.56760620991839
C         8.98307605577614    2.25830768901648    5.56663024004463
H         8.13728514968683    2.60678312527287    4.97811688235329
H         8.99404702958722    1.17013626926428    5.59377035806116
H         9.91643644405086    2.63436299129424    5.14161791093933
C         8.48840364118866    6.54154920759167    8.03198887764024
C        11.35215625072364    3.12981542810899   11.12405629731206
H        11.96819470938404    2.56469093596229   11.82157546027509
H        11.00103540213460    4.02937586128292   11.62527629495624
H        11.97261671051597    3.42673009686531   10.28071157753841
C        11.47127716347820   -0.13398096351632    8.01211210263524
C        11.01144246842402    1.02707478975816    8.64563979418188
C        11.76368643381111   -0.17263478110249    6.52929431326601
H        11.53606550914930    0.80621756215516    6.09792035168341
C         9.21011339222258    5.84430228617700    4.33605644993675
H         9.81611671018003    4.97555606587331    4.60720787633216
C         7.01969801932123    3.74966137952107    7.15385489267418
H         7.01038966611513    4.55210357934625    6.41777506764563
H         6.70298450243669    4.17184501730064    8.11382608972676
H         6.27649403624735    3.01181150390949    6.85357879402730
C        10.16667302681260    2.27847662145081   10.66117658053676
H         9.60933388050397    2.84821542876903    9.89394820569498
C        10.09701990776865    6.81780381255122    3.55638619294306
H         9.54281952368299    7.71247127733800    3.28193153573098
H        10.45713685116337    6.34429703739581    2.64516132088328
H        10.95790642506518    7.11307014875764    4.15114363074449
C        10.67238228895006    1.01219745346866   10.00864112982621
C         8.85657769947632    5.97184618455086    9.38361023847150
H         9.07324867166088    4.89682932603795    9.23970833162522
C        11.61521516977485   -1.28935312832385    8.76933311357577
H        11.97125029784886   -2.19244517180761    8.29735080184901
C         7.31217274761159    8.14365870739289    6.67489610768010
H         6.65383946398759    8.99666958921028    6.59912014152185
C         7.73610859430580    6.07972856441139   10.41655101110691
H         7.60471050277335    7.10706086918182   10.74823604107391
H         7.98004598650272    5.47821492026298   11.29090172435737
H         6.79276875379028    5.72388222567675   10.00728725750765
C        10.84219890039203   -0.15781620116440   10.72947211907146
H        10.60587529627975   -0.18171211240084   11.78126962062789
C         9.20822028478398    2.02375434179639   11.82221220305372
H         9.73625874726330    1.64103507893196   12.69260982158169
H         8.43847382306958    1.30985242991594   11.53746548610785
H         8.72369308718093    2.95467095247288   12.11130089529050
C        10.12493600761777    6.65042072912850    9.90756251738641
H        10.96527011684448    6.47535589910195    9.23937206901732
H        10.38324218966748    6.27029499784021   10.89424663264709
H         9.96657142081083    7.72490574566758    9.98384612002887
C        11.31876367418603   -1.30278523910061   10.11697911246897
H        11.45100731138596   -2.20730760117773   10.69194570247918
C        10.86944801279784   -1.20645531219739    5.83887212954195
H        10.98496712450700   -1.13932588816041    4.75922265567366
H         9.82497457163941   -1.03239287953626    6.08832754337120
H        11.12930131194813   -2.21589292090636    6.14720241022764
C        13.23895620883506   -0.47938004335182    6.26232928165972
H        13.88006961413567    0.26546932601772    6.72922994823261
H        13.43311430144969   -0.47603818482453    5.19186330706126
H        13.51046049783610   -1.45543726364738    6.65720950367893
C         8.05626513803758    5.36114449800266    3.45309624138331
H         7.38797916412465    4.71420953280677    4.01619142327699
H         8.44475234724499    4.80293566989231    2.60377148435999
H         7.47940399848983    6.20062033213957    3.07292855089827

