74
CSD_code = MIBQOE | q = 0 | S = 0 | Stoichiometry = C37H29N3O4Pd | MND = 4
Pd        1.04222223206367   10.07221306165204    5.05161663298721
O         0.64967172448644   11.95737759979811    4.49025134393392
C         1.53158702903077   12.80470859861282    4.28047718316412
C         1.05858882733470   14.17877284843306    3.99166074223542
C        -0.10192083787511   14.32569613136788    3.23333957244207
H        -0.58990746365120   13.44077474938576    2.85401539618545
C        -0.59160812126804   15.58703083053025    2.95391044493468
H        -1.48188335191960   15.69698553751480    2.35311123640237
C         0.05565023990231   16.70840845940401    3.44821597881075
H        -0.33003801019334   17.69402551148348    3.23360094362353
C         1.19482807714397   16.56645695535757    4.22487658102744
H         1.69062964305041   17.44001121111092    4.62131530636012
C         1.70074623902470   15.30862363161449    4.49541849275054
H         2.57955333456760   15.19738668500069    5.11326820213753
C         2.97247268106335   12.57189042261246    4.30025166039475
C         3.78567103306285   13.39719161463054    3.51022060950243
H         3.31280280648633   14.11632057873200    2.85988283879829
C         5.15566637491827   13.27361662638089    3.51071528570856
H         5.75834837316026   13.90731766718267    2.87880378072522
C         5.75491810356148   12.32846265212807    4.33623697372146
H         6.83072997954473   12.23649016860628    4.36093704160519
C         4.98733173100298   11.48930732161119    5.11024209873502
H         5.45582587108670   10.74900855213293    5.73771955238307
C         3.58455643975094   11.55251845424743    5.08862378707206
N         2.79200636004004   10.68091531901110    5.79405245840098
C         3.21632982900943    9.80921147559889    6.73003839298621
O         4.33728208449084    9.65799237851438    7.18833496474191
C         2.02489095300506    8.97251166412290    7.25620126708090
H         2.38736953239238    8.18588679324039    7.93009768759227
H         1.38168940353895    9.65477935646234    7.83112462809394
N         1.26535455117592    8.42673382458641    6.12493543115129
C         1.96965013428249    7.30407166453584    5.48053559917005
H         1.38204594867355    7.01443486865037    4.60369165713005
H         2.94476378112697    7.67653358282224    5.14625672015765
C         2.17447005629166    6.09794250229956    6.36348517833121
C         3.31551137681598    5.98628947944541    7.15114929687595
H         4.07325758235241    6.75623714194782    7.11300518999746
C         3.49220001944685    4.88828574107630    7.97524360256454
H         4.38035644295329    4.81392441639597    8.58468381089560
C         2.53556287975473    3.88805355195387    8.01506461869407
H         2.67351053847831    3.03260010839766    8.65929074455973
C         1.40800945553307    3.98117865263944    7.21683960936756
H         0.66630424510241    3.19674323073044    7.23268095954559
C         1.22910112199373    5.07844846971505    6.39213215583580
H         0.35567891583993    5.13806737076287    5.75813492788788
C        -0.12533796145413    8.09170785036353    6.44870671905446
H        -0.52684297800926    8.83991614686924    7.14713772212584
H        -0.21646975278087    7.10191633309468    6.91199147362540
C        -1.00176698208808    8.16923312991419    5.17192327131786
O        -1.83745409982004    7.31382970218539    4.92534294784361
N        -0.68621852585441    9.25144593561856    4.44874991444410
C        -1.39945461280007    9.68106344901957    3.34444128221884
C        -2.78860307995293    9.55214670294491    3.25225158934877
H        -3.31013910535897    8.99262542925503    4.01213069752814
C        -3.48193384902702   10.14105140199506    2.21484372548714
H        -4.55545675458247   10.03187764589135    2.16517037487539
C        -2.81801464886472   10.89002932694260    1.25270773927273
H        -3.36916975630858   11.36743254204857    0.45680650064940
C        -1.44437981965330   11.01103179412770    1.31608007746980
H        -0.90017832390398   11.56887178077168    0.56728930187904
C        -0.71933807901653   10.38372027927461    2.32655900030298
C         0.75927330629220   10.46126724605145    2.25588519069628
O         1.34595358892153   11.47026669634489    1.89722706504912
C         1.52747985516503    9.18042570657975    2.43558017188145
C         0.96315072960908    7.94137497136304    2.11811811885547
H        -0.08901124117023    7.87093764035077    1.88252073626086
C         1.76126732375947    6.81059660631648    2.06660492683893
H         1.32171916718820    5.85869383448641    1.80800599670556
C         3.12003736874646    6.89666232293004    2.32692528654082
H         3.73584715285153    6.01132250126231    2.27583643067093
C         3.69112014118057    8.12277841760522    2.63732886900272
H         4.75297103372598    8.19400704253214    2.82250228644375
C         2.90725642346503    9.26185299801400    2.67823115596662
H         3.35340531212978   10.23917710338122    2.82701084093787

