61
CSD_code = MIBRAT | q = 0 | S = 0 | Stoichiometry = C24H33ClIrNO | MND = 8
C         2.27309897708627   -1.77376572729643   15.56149340888973
C         2.17699152625192   -2.96117673555361   16.27214961812163
H         1.65950740727584   -3.80549223153346   15.84099490908491
C         2.71496321698460   -3.09756283280828   17.54746457443128
C         3.35753245292364   -2.01346750638580   18.14433728658495
H         3.76851662400038   -2.12020957142242   19.13779216714303
C         3.45216853343709   -0.80786963652826   17.48575002596120
H         3.92447856994171    0.04798322606302   17.94414776458400
C         2.91500819189518   -0.69160704518027   16.20551434710847
C         2.61720949222755   -4.40818630758010   18.26724085464079
H         3.45979734762334   -5.04526173081076   17.99514335542450
H         1.70123025565272   -4.92882649859864   17.99884882798693
H         2.63916637052594   -4.26261346855128   19.34447496923960
C         2.90695256927565    0.50265682023084   15.41160122515867
C         3.11897256715157    2.59806989051315   14.70619494686873
H         4.07929724690329    3.00935724500861   14.38284629990534
H         2.48432776259768    3.40648735127328   15.07631638455258
C         2.42233596766913    1.75275370069733   13.61173934740088
H         3.02435728505263    1.71638551827593   12.69503342172167
C         0.99811043321595    2.19539444930184   13.26048180152895
H         0.44624853469680    1.29911920503677   12.96910376999530
H         0.50870672677624    2.58591309446843   14.15414995915870
C         0.91545434364626    3.21631248924112   12.12380812633574
H         1.44822002670464    2.81307539279165   11.25438435009308
C         1.55326899646634    4.55174794038184   12.49934020223417
H         1.44063895438073    5.26317163542613   11.68401033566358
H         2.61455204876083    4.43688354013180   12.70534077802802
H         1.07064709366786    4.96784647943043   13.38078596732262
C        -0.54806641666563    3.42493783490788   11.73980923024138
H        -1.10467118246223    3.82751881307175   12.58260316437056
H        -1.00851365220966    2.48353095102443   11.45029713349361
H        -0.63161085472834    4.12061706370275   10.90783033469225
C         2.66875535896176   -2.13089894206370   11.94186902993345
C         1.55263540820551   -1.41005703979800   11.35957283550744
C         0.37421920471916   -2.02024811015655   11.78720017786332
C         0.72741919824960   -3.13113631202861   12.65895913731103
C         2.15098974126778   -3.26035786488670   12.64300322976296
C         4.10249760761586   -1.93592158418635   11.56208307911345
H         4.76348563944259   -2.34068028317086   12.32509154992716
H         4.33662926154228   -0.88161249363940   11.42853711955624
H         4.31198599282113   -2.44912427869348   10.62092385411439
C         1.68555028716222   -0.29542864143673   10.37144232057559
H         1.81347043543320   -0.70234206081454    9.36590769911349
H         2.55357805652476    0.32265237544376   10.59278814371454
H         0.80306512820546    0.34044740174022   10.37172891973285
C        -1.03074407384648   -1.67897503995384   11.41341305029974
H        -1.06156543823837   -0.84500659535158   10.71644480835610
H        -1.60345545091806   -1.41064153729279   12.30162828329551
H        -1.51270530002746   -2.53945928258077   10.94803345624122
C        -0.26491742388659   -4.15091661919951   13.12600498178154
H        -0.60121639744763   -4.75910377480279   12.28368402442459
H        -1.13281418811162   -3.66175120212055   13.56317348159483
H         0.16861846569422   -4.81045875300757   13.87355083368127
C         2.96264096284000   -4.41399011088399   13.14284677374739
H         2.37680959865025   -5.05014692111311   13.79986944544043
H         3.84072299174607   -4.07533842370042   13.68908650285044
H         3.29781375704886   -5.01517848926315   12.29570468069839
N         2.41026659047311    0.43013854647723   14.21721649859627
O         3.36453939223459    1.69664157194866   15.78707006057405
Cl       -0.38497812791843   -0.67722540748372   14.84270836485993
Ir        1.53450590483721   -1.39010347671689   13.70752876936288

