61
CSD_code = MIBTUM | q = 0 | S = 0 | Stoichiometry = C26H29F5Zr | MND = 12
Zr        2.03729472350544    5.60713913303705   11.93050296466841
F         5.15323650163242    6.63884317884295   13.89060993516578
F         5.40867371391301    9.03655558131595   15.24034115813019
F         3.38399066614518   10.85339696754350   15.14894017853462
F         1.11153722342779   10.30936446202285   13.71135179365317
F         0.91802919867344    7.85206707100451   12.35062724889337
C         3.02227163805121    7.21305042028253   13.13161118557504
C         4.15153047480031    7.54899837754289   13.86596588141760
C         4.29691362981827    8.75333893832375   14.54609007065498
C         3.26310595724110    9.68799085952586   14.49968786741059
C         2.10604389243004    9.41259701811144   13.77124620215584
C         2.04098124532309    8.19188017862535   13.12263701862055
C        -0.17361115956721    5.10761262188542   12.13129051077289
H        -0.88654717053711    5.85528742457182   12.49565427468541
H        -0.65570503803951    4.42264191258106   11.42424890404951
C         0.62185260307953    4.44681792219152   13.17912232597682
C         1.62596238739882    3.46270724487034   12.78311643603039
C         2.73991081423045    3.61753095094768   13.64861911972530
C         2.44540051808824    4.64163528542602   14.58665147187270
C         1.17251084130522    5.17135537132262   14.29000709494582
C         1.33123345230027    2.26573672637648   11.91603500802422
H         0.96386803012081    1.44418275098167   12.53871846681167
H         2.21671276414338    1.90503354650784   11.39529654684578
H         0.55537841034827    2.49198516303905   11.18481849106985
C         3.94998502498747    2.72946247164829   13.73129329637309
H         3.97125664526477    2.20503919331388   14.68822305623299
H         4.87029760997321    3.31346134923492   13.65764778448694
H         3.94486667187203    1.98096288455477   12.94140374855125
C         3.29061193071733    4.97384586323766   15.77867571801477
H         3.04826082835053    4.30493284465890   16.60755534878620
H         3.11780190594777    5.99466041345151   16.11704242595678
H         4.34817839249886    4.85500879375876   15.55388240027423
C         0.44285848759820    6.21324109332424   15.09153267939617
H        -0.10592595876043    5.74316269205820   15.91151987318970
H        -0.28098948987919    6.75329506251101   14.47992262872590
H         1.13414268105368    6.93303717939581   15.53199569706075
C         2.96246530355903    6.99412815386906   10.12953482616741
C         1.75085283438557    6.42183371552629    9.65570178672527
C         1.92893645502848    5.00794841551908    9.56005975483651
C         3.25122513542619    4.70701707359432    9.99662514420432
C         3.88197703218907    5.92997084465526   10.36111393967864
C         3.27804157158875    8.46515692915459   10.18434212685344
H         3.61645714463738    8.80795478188822    9.20342432742791
H         4.07015731330765    8.67973095427335   10.90181556957237
H         2.40282211384421    9.05662339629678   10.45344030326407
C         0.51255254834436    7.15336324497712    9.21281605333165
H         0.37948220617046    7.05841503149088    8.13293340045435
H         0.57884090933877    8.21324665573091    9.44992650289194
H        -0.37671502381003    6.74520358757834    9.70125869291291
C         0.97574516508618    4.09745875436303    8.83431674068701
H         1.01520533570187    4.30803922532765    7.76247367912653
H        -0.05341346697528    4.25465927679875    9.15905250254730
H         1.23425531854372    3.05020555875182    8.97461739525558
C         3.99267291415486    3.40312672810762    9.87812225053840
H         4.80846882967153    3.50981697368648    9.15913543346899
H         3.34300435584063    2.60754439075388    9.51996299578568
H         4.43451404374756    3.10218226891265   10.83054495135766
C         5.32347217874324    6.03649593624309   10.77653195842355
H         5.97908952227921    5.77768699940721    9.94146126987807
H         5.54863401608430    5.35340886605833   11.60001081859714
H         5.57183619575856    7.04822328894459   11.09129276317283

