63
CSD_code = MIBTIA | q = 0 | S = 0 | Stoichiometry = C26H31F5Zr | MND = 12
Zr        1.20987394493919    2.75879575162069    3.72844092043820
F         0.04179520136841    1.41654611826308    4.43583584542384
F         3.35620947700061   -2.45750730101417    2.31981673102875
F         5.45141948436997   -1.18977545519971    1.12252421715857
F         5.55137317369696    1.56126289885071    1.13315096129809
F         3.49057881875879    2.98217824794108    2.37293792076096
C         2.40125774226748    1.00535670600990    2.97009935957155
C         2.38736696286342   -0.39359721099006    2.94277570512400
H         1.57538668428412   -0.93987237932414    3.40517900406483
C         3.40075577221333   -1.11272020636040    2.32809307233354
C         4.47723657232915   -0.47959792583015    1.71202152867883
C         4.52970074532040    0.91120353654578    1.71518664612136
C         3.49303610212488    1.58252425924093    2.33996020969425
C         3.00811724907850    4.16245096221796    4.90702343336755
C         1.73029575585250    4.63943577530170    5.31611414559696
C         1.07587991049809    3.58037776391356    6.01740823146958
C         1.95687246981691    2.46662198210376    6.04480886080673
C         3.14321386933242    2.81851939875178    5.34455001408881
C         4.10574759736504    5.04527707357741    4.38039194532859
H         4.51334549047805    5.65276023378360    5.19238963667006
H         3.74225530259064    5.72473785858943    3.61047273191468
H         4.92260769701292    4.46169747568147    3.96260681887535
C         1.41665870127794    6.10855119876641    5.42606909195387
H         2.04512899420399    6.54587691125510    6.20714329490376
H         0.38147743641037    6.28824294220531    5.70349474927389
H         1.63420193773144    6.64554535024475    4.50409400803743
C        -0.27716554479076    3.62431847212544    6.67835970486742
H        -0.17810165751315    3.50035851819336    7.75864902025362
H        -0.91540581888429    2.81934809426614    6.30354634286443
H        -0.77294779766862    4.57733137341151    6.49811782595401
C         1.72686818670653    1.15593759614602    6.74275060928800
H         2.31844198558879    1.10439409690667    7.65962607903191
H         2.01653851166959    0.32068638842129    6.10152507084325
H         0.67728044137032    1.03848616493075    7.00229250107471
C         4.39789225226496    1.98786780024960    5.32802455613245
H         4.92672811830980    2.09973469580970    6.27782799311971
H         5.07798800274274    2.30032802267553    4.53736745813805
H         4.17234731986498    0.92842639633551    5.19672696120700
C        -1.00049308938612    3.20678692226449    2.67781221462963
C        -0.33628827260526    4.46227960322225    2.76427422401950
C         0.80172173093652    4.40905579410866    1.90039527078662
C         0.82598954829038    3.12502015304140    1.28548898181399
C        -0.27953956604500    2.37931872967467    1.78144205071096
C        -2.30769254476568    2.85186724733865    3.32773611546105
H        -3.12246689702876    2.92514032351623    2.60358457643060
H        -2.52956652163104    3.52401204415927    4.15523396187819
H        -2.28585343179177    1.82927048229812    3.70381724545274
C        -1.00409538949520    5.70350309639456    3.29747715876197
H        -1.87443121288106    5.93239351456374    2.67700427439435
H        -0.34444552705493    6.56589713435800    3.26225379656734
H        -1.36056227774661    5.57254086706970    4.31944738175684
C         1.65838605348719    5.57225650956175    1.47510055110694
H         1.31659558487164    5.95657505866563    0.51068745085869
H         2.70280381184193    5.28063510229953    1.36078947533454
H         1.60575404758385    6.39057147384093    2.19121812668543
C         1.66501431082587    2.73894157398881    0.09643651296255
H         1.10873454448731    2.94505601088594   -0.82163598106989
H         1.91088392833708    1.67608475316855    0.09968568003282
H         2.58916249674900    3.31167352913472    0.05154066310977
C        -0.67353475939223    0.98235193222051    1.39292556067210
H        -1.56868624244185    0.99652274211213    0.76787596480884
H        -0.89242481763636    0.38998544473561    2.28291342301003
H         0.12267739971125    0.49095037181781    0.83619211307599

