101
CSD_code = MIBVOL | q = 0 | S = 0 | Stoichiometry = C38H56ClN3P2Pd | MND = 4
Pd        3.99247620380209   13.06594729431324   13.77975226110645
Cl        5.33136217641458   13.86391193179791   15.42676618192387
P         5.78688021026784   12.30906764435804   12.61278619583800
P         2.23169042570477   13.80276381114686   15.00857469492335
N         3.50827215132894   14.99422511505645   11.98783285947115
N         2.74894165312793   12.40077601033592   12.39195941451049
N         3.45665319242272   10.47556932123756   14.20045274685090
C         3.88775481289022   16.38867075716822   11.96245865733128
H         3.00595229400078   17.03015426225437   12.12722023739757
C         4.89518286290154   16.61206474629322   13.09197848736628
H         5.76590093647113   15.98054112095500   12.90718701715208
H         4.46167645758433   16.28584522246770   14.03883719823750
C         5.31955674894415   18.07279189169842   13.16469862244992
H         4.44986078648874   18.69706819984074   13.38779300843824
H         6.04289725008946   18.20755046635022   13.97102136669873
C         5.92902326239712   18.51327375613415   11.83682002882812
H         6.84064697451070   17.94054963103515   11.65065074403488
H         6.20136339061871   19.57035304681005   11.88023985525257
C         4.94456057246315   18.27873088038064   10.69461114974432
H         5.39855407430215   18.57062404848449    9.74452840819575
H         4.05838379466625   18.90092235193136   10.84450004397129
C         4.52386149654484   16.81347369957777   10.63146078243209
H         3.81452359319070   16.66623436939600    9.81432414761283
H         5.39979469716145   16.19061856949265   10.43827843390493
C         2.53276071617471   14.54198229515802   11.28706054113979
C         1.66851181613464   15.34216829467484   10.37914987742232
C         1.76708566254241   15.20279552554842    8.99975427852978
H         2.48433668661270   14.50721339417538    8.58701160327497
C         0.96017321260005   15.94824341095388    8.16057576221916
H         1.05053026569713   15.82998464626217    7.08976463596500
C         0.03152658291492   16.84426509640195    8.67470322637104
C        -0.07390330817890   16.96980226049906   10.05437142480173
H        -0.79908348120859   17.65416800102853   10.47226761628256
C         0.73212517080469   16.22882876915687   10.89787037871867
H         0.62518461882618   16.32831777657243   11.96979906920683
C        -0.82825528353525   17.67079031076181    7.76734172888977
H        -0.89695591740800   17.22103731260469    6.77972415148071
H        -0.40233761459714   18.66886636605211    7.65698697622788
H        -1.83057007123866   17.77902182694521    8.17682923223218
C         2.18741411613475   13.15037662559565   11.42450835636495
C         1.22555605725710   12.37963700744494   10.74340513697656
H         0.62064646803999   12.70829556123515    9.91918286274062
C         1.22109749828080   11.13412771306817   11.34296150151392
H         0.61064997472765   10.28873058021541   11.08602777880461
C         2.17694537995346   11.18167681262087   12.37579517064376
C         2.52951934962227   10.19185835919691   13.35917738149186
C         1.76092063672076    8.91990145880162   13.32217212852442
C         0.80432257263909    8.64218957088455   14.29178757828005
H         0.60637756173694    9.36754887089591   15.06937569237532
C         0.09834997608120    7.45457132704925   14.25892658421283
H        -0.64330004101654    7.25176449599300   15.01898581339817
C         0.32805457823712    6.51561700461276   13.26059612081553
C         1.27690658628572    6.80212495041452   12.28770515214907
H         1.46408273389544    6.08733167717895   11.49850311869937
C         1.98409256549623    7.98991088628094   12.31424391019233
H         2.71712875659386    8.20195984150822   11.54816647020602
C        -0.45336719847074    5.23732522505119   13.22446977445433
H        -0.61079875907341    4.85199214059058   14.22986075623144
H         0.06094716780246    4.48305129181827   12.63374929281816
H        -1.43226522400928    5.41088281298197   12.77587168133541
C         3.90486933179136    9.52057103829597   15.18648585276392
H         3.06265179947799    8.96786419701913   15.63414162411462
C         4.64861292212388   10.30206924235819   16.27147412803715
H         3.94644171918072   10.96245138839741   16.78100705891512
H         5.39101044386929   10.94000506412647   15.78332462616056
C         5.31211955943157    9.38125640050785   17.28808131722816
H         5.86752347181730    9.97988342966061   18.01248703855585
H         4.54249559989761    8.82616295462285   17.83206265593319
C         6.24681569289644    8.39160315800891   16.60164404544798
H         7.05623858007573    8.93644361389778   16.11002957015958
H         6.69451806505195    7.72399128935204   17.34132901408596
C         5.47646939254932    7.57922547620500   15.56615315234159
H         4.69243421302846    7.00414177090586   16.06522887728558
H         6.14418643483141    6.87115825607165   15.06917012439276
C         4.84438612577168    8.49897454801806   14.52845953676462
H         5.62821779329925    9.04161691862277   13.99485234365713
H         4.28273288082529    7.91026984017577   13.79842709761948
C         7.24727384428709   11.70456976431312   13.53763868007998
H         7.53019663714094   12.46395942652103   14.26601607012675
H         8.07480228238779   11.51517098960267   12.85356178855587
H         6.99678145003309   10.79098460355573   14.07195352558612
C         6.58344132025225   13.54583964760910   11.52294740989460
H         5.81901651713599   14.00010217283941   10.89506518169165
H         7.34474578420061   13.07177045423813   10.90281032275766
H         7.04434344084616   14.31532971931363   12.14007871705075
C         5.49656966166054   10.95554172649017   11.41043220733759
H         5.05088931418434   10.10410890172788   11.91895871375259
H         6.43401362981762   10.65730407534705   10.94146236957384
H         4.80123218676333   11.30443695661606   10.64886161181457
C         2.07852524108589   13.04068204821597   16.66449534454120
H         1.90112210999394   11.97232141672129   16.54912674508053
H         1.25319446314150   13.49295410502026   17.21520724632005
H         3.01258730764148   13.19538666623589   17.20361433023517
C         2.17892769249554   15.57749676522031   15.45407558106125
H         3.09258762825971   15.82843962946432   15.99162291682537
H         1.31340016443139   15.77679301374317   16.08671330437886
H         2.11867244018308   16.17978006089041   14.54937921252944
C         0.53607044702436   13.55132983612629   14.35394516773875
H         0.42345343622198   14.07863177382829   13.40839601535600
H        -0.20248484762058   13.91727199977242   15.06686442878074
H         0.37193399110652   12.49061801165695   14.17039973669448

