30
CSD_code = MIBYUU | q = 0 | S = 0 | Stoichiometry = C13H9FeN3O3S | MND = 6
Fe       10.56784114823835    1.59091379752361   11.78585883084401
S         9.09851138364315    0.67600670604299   13.38422569905453
C        11.56333288096844    2.27672117942593   10.52029924407317
C        10.25218738281471    0.22700643948874   10.72569194256719
C        10.53122804871798    4.16248557744142   13.43066426087210
H         9.71650834893104    4.45442771499455   12.78288228367608
C        10.94730493921083    4.97985996932278   14.45946352166064
H        10.45798269864397    5.92367556100975   14.63341563613787
C        12.00481306123203    4.55967488153742   15.26254989523496
H        12.35090657117344    5.17491001177362   16.07868607117845
C        12.60452260311553    3.34939547044812   14.99857883972583
H        13.42765645377384    2.98429716524792   15.59163349535287
C        12.12207182593992    2.57829153018531   13.93438984598027
N        12.64228603338115    1.37996458831660   13.57944442189259
H        13.42412914249713    0.97904791829935   14.08550312601834
C        12.10487549384728    0.68482143495695   12.47568487527198
C         8.05835798682210    1.77910663151318   12.57560202543006
C         6.71863010415122    2.03354740734932   12.89440299977578
H         6.26670873764879    1.50946714972785   13.72070253584539
C         6.02501617235027    2.94153515832246   12.12848754141536
H         4.98810420775240    3.15621603211634   12.34066224627612
C         6.67071398133251    3.58344441751276   11.06983829578779
H         6.14894276150113    4.29538219156792   10.45150429195642
C         7.99557164501075    3.28500970671922   10.82324655836958
H         8.54406943568831    3.75304222432389   10.01688412474300
N        11.09363276171405    2.98304711810732   13.16758540973034
N         8.67520179738026    2.40910716664668   11.55368375796461
O        12.25580494288712    2.63008300666951    9.67782886198974
O        10.10030518971800   -0.66866347937193   10.03975309283633
O        12.61258225991383   -0.36062467721996   12.15794626833775

