33
CSD_code = MIBZAB | q = 0 | S = 0 | Stoichiometry = C14H11N3O3RuS | MND = 6
Ru        2.64623740818910    1.86708074105553    8.24179844365737
C         1.70871734270151    2.67753051277040    9.62336379908128
C         3.16115401526818    0.43151784722742    9.30483028557857
C         5.21919781923817    1.93390987532853    7.19350751120328
C         6.55693871762452    2.02971254926310    6.78548157966490
H         6.86755590891101    1.51108711280492    5.89287328749412
C         7.42902699033159    2.76730449754971    7.54965797533482
H         8.46751203121244    2.85302689366675    7.26620919429322
C         6.96038529245278    3.39765742715465    8.70387639000084
H         7.62232650567425    3.97084559891675    9.33200805656797
C         5.62602333836766    3.27274090887632    9.03066773628359
H         5.21761458713661    3.74803819620069    9.91391240863318
C         2.40162409199482    4.49882820152999    6.50705977584911
C         3.29822791227101    5.17584698678093    7.49304547418934
H         3.15968217022551    4.74305133133627    8.48529087489830
H         3.07789009169882    6.24044374828995    7.52962661560343
H         4.34229954051353    5.05895620662125    7.20075304631529
C         2.00917102860167    5.15767625352297    5.35161781486873
H         2.38428873106082    6.14826736782001    5.15206609714367
C         1.13639803925777    4.53746330550892    4.46838141764846
H         0.83132285120868    5.03335863965998    3.56007221896797
C         0.64904227077190    3.28852687157944    4.78188897867638
H        -0.05127695686186    2.77537171664602    4.14314557019297
C         1.08758479583941    2.67601456482054    5.96016589331673
C         1.03442388973290    0.88221617633226    7.56522702765602
N         4.76883332402338    2.57359182102529    8.29252889390861
N         1.97459264683684    3.26137117740733    6.78812189025692
N         0.61896909492791    1.46221506594766    6.35574862157421
H        -0.08920338530230    0.99105307108703    5.80160286784905
O         1.10452677695895    3.16051049678965   10.47176877178763
O         3.47260359340598   -0.48569092401263    9.90488174121102
O         0.52418588337475   -0.14231831859173    7.93160757104302
S         4.03232365235240    0.99389407908256    6.37741216924932

