33
CSD_code = MIBZIJ | q = 0 | S = 0 | Stoichiometry = C14H11N3O3RuS | MND = 6
C         8.75334546244688    6.84315540956398    6.27653762518414
C         8.48896120399990    8.18260065719502    5.95014362327401
H         9.30615499951744    8.80469825659797    5.62262372779416
C         7.20138376600165    8.64700254947967    6.04837809314393
H         6.96622467981891    9.67095447775334    5.79950820758309
C         6.19144475898861    7.77530030574488    6.46561213844576
H         5.16826157384804    8.10516774073086    6.53854901920754
C         6.52263815441470    6.47455928078602    6.77760980190319
H         5.76394937489612    5.76622036509795    7.08922242519011
C         8.57383129536611    3.64377845564716    5.40359677060831
C         7.04229473766395    3.44882327190161    7.80567601979971
C         7.57802854760371    4.82950480372852    9.71071495551498
C         7.25804079493416    5.39939131922243   10.94522722565887
H         6.26929250429532    5.27069459082472   11.35495505989516
C         8.23139852151219    6.11559526402325   11.60887480955624
H         8.01647278440940    6.58131785969738   12.55807245602186
C         9.49774006225858    6.20134485983723   11.05120952703782
H        10.29120805904861    6.72004924804375   11.56378213840314
C         9.75544173109419    5.60502600725698    9.82348314179613
C        11.13054126702424    5.63065487112419    9.24909160673833
H        11.28450982408217    4.77553166710776    8.58805304017552
H        11.87180935291619    5.61645076799571   10.04434268295477
H        11.28112115540047    6.53500031030594    8.65811020998637
C         9.79326426229679    2.75422270271351    7.57251893807227
N         8.79090457255581    4.96947423600347    9.14397511507624
N         6.68375031867233    4.06897560339848    9.01559151467965
H         5.78852916321707    3.84226550165248    9.43881493184869
N         7.77092615823538    6.01397153733185    6.69998223509359
O         6.25738675844276    2.70932375661487    7.27377953301083
O         8.45821914701422    3.29491997736473    4.32459233658028
O        10.41693723789299    1.82591623464895    7.82182966901211
Ru        8.77052241932662    4.24452827544721    7.15188876508535
S        10.29676535080466    6.11287983515910    6.17095265566726

