30
CSD_code = MIBZEF | q = 0 | S = 0 | Stoichiometry = C13H9N3O3RuS | MND = 6
Ru        8.60556689735188    5.68806189257730    2.01663759113684
S         9.11319406271063    7.49556724936768    0.26902708169821
C         7.86899418896347    4.25466634177025    1.09219974563028
O         7.40715111083790    3.38286638952692    0.51181502267226
C        10.31990570125692    4.97876487398426    1.85862069202312
O        11.37886073209886    4.56778659617016    1.75945679320957
C         8.23016176490957    4.89272357193594    3.83488572484809
O         8.89713723141092    4.19379018917133    4.55164632540470
N         7.00223536563035    5.38453905299608    4.32720466951465
H         6.68468177923558    5.09058997481290    5.24594702177540
N         6.72982954453991    6.51175054676425    2.35881194814943
C         6.22392515066755    6.20031218475683    3.56548808975291
C         4.98447389550001    6.68809476145238    3.99525285685516
H         4.61369981178795    6.41660792630482    4.97094480996109
C         4.26522743763329    7.50625872947634    3.15193418386225
H         3.30657704116405    7.89605309094796    3.45742145875412
C         4.79110529470639    7.81795318036284    1.90176651163808
H         4.25509052710428    8.44993299595119    1.21379338375853
C         6.01983852695142    7.29936742109758    1.54872460275531
H         6.46495449980373    7.51768497042817    0.58453638779203
N         9.34982343100671    7.42992642482232    2.84048451019518
C         9.49129729334717    8.24152357840071    1.76668144343308
C         9.91769167515189    9.57015209598793    1.91073909265040
H        10.01445129427435   10.18104001840368    1.02785439741160
C        10.20715008387433   10.03921371621852    3.16866332400678
H        10.54465472225094   11.05506726524102    3.31021558584452
C        10.06770864665058    9.18681864188127    4.26719537398722
H        10.29604463526227    9.52434981016967    5.26460881130622
C         9.63722762739585    7.89427387201678    4.05510048318537
H         9.52644002652077    7.19406263700351    4.87534207678746

