91
CSD_code = MIBZOM | q = -1 | S = 0 | Stoichiometry = C40H45O5Ti(1-) | MND = 5
C         2.19581690920099    5.72051033125555    2.18502618658760
C         3.15614827713935    4.95002809482392    1.48775064469471
C         3.24278422125324    5.03178131331663    0.11036282118264
H         3.97573755957653    4.42192251922381   -0.40232950962829
C         2.41821936147276    5.87352772543050   -0.61512187141669
H         2.49272805197551    5.92116794332901   -1.69305152154754
C         1.50664670474873    6.66390861186568    0.06121622261495
H         0.87025045572046    7.34479670694086   -0.49143763023515
C         1.38630489189321    6.60975737907943    1.43885495002014
C         4.09237599598800    4.06004803739672    2.25149920069164
H         4.07656104836306    3.04827942719391    1.84760832532067
H         3.79574076700541    4.03472823622460    3.30081084094701
H         5.11321308911872    4.44208122566672    2.19563133363071
C         0.41326567106259    7.51715082017742    2.14146791378938
H        -0.58030746493905    7.43853396226944    1.69876639878990
H         0.73690554114636    8.55682554748499    2.05204072258764
H         0.35548685341979    7.25714597513066    3.19830922959298
C         4.49725378641519    5.94513180425797    5.17926198976674
C         5.09172734631094    6.84862850390944    4.27015645825770
C         6.37519673944971    6.61150106687920    3.81010369050508
H         6.81685541939426    7.30500868630307    3.10535590490756
C         7.09725373146290    5.50647054299556    4.22799466535758
H         8.09747233043581    5.33452967051856    3.85454814828073
C         6.52603254189112    4.62306243025600    5.12881551379535
H         7.08683810092300    3.75897945223738    5.46337523304017
C         5.24620802398606    4.82630027648123    5.61314294422098
C         4.31213790396204    8.05061925100211    3.82129617045660
H         4.34387935443449    8.83236023231266    4.58340307669900
H         3.26950140857562    7.77050754002504    3.66946568604560
H         4.71732309002406    8.45080171256065    2.89348896757139
C         4.61549700836963    3.88901928728994    6.60250619727253
H         5.18559450612394    2.96453176367349    6.68639724211711
H         3.58663559022494    3.66433939622793    6.29469072950426
H         4.56252388527524    4.35670924167782    7.58888298593079
C         1.48914531090386    4.45962531690670    8.18147330886533
C         1.03585526305009    3.18456128023038    8.59521870155896
C         1.08797430114714    2.82934703695250    9.93263955989162
H         0.73459002015867    1.84786950140182   10.22511455152355
C         1.58126723102312    3.69490181175845   10.89100933273127
H         1.61665819299881    3.40131196500462   11.93136718741056
C         2.03367503894011    4.94242760075222   10.49622354605162
H         2.42751239805807    5.62879013687472   11.23588798476931
C         1.99808530356680    5.33594796388149    9.17154390423937
C         0.49210428336233    2.20854540091419    7.58897594946769
H        -0.59301095828778    2.13097922261191    7.67861677122819
H         0.91256575881778    1.21501197851413    7.75106824624140
H         0.73248958969779    2.54207709455097    6.58010961636416
C         2.48715489740352    6.69504780738477    8.76661015803692
H         3.24285203199981    7.05908245142268    9.46247604126186
H         1.65524497240739    7.40104298668017    8.75582108511025
H         2.90356497174695    6.65246482037376    7.75942319776734
C        -0.30403519698699    6.90955143240992    6.27378916820410
C        -1.35656621301010    6.24160938732953    6.93380803608779
C        -1.95646734937531    6.82958066860376    8.03389816388547
H        -2.75285124557037    6.30295086394553    8.54426904491270
C        -1.55559954829581    8.07374852902983    8.48984616248806
H        -2.03388636282590    8.51923560109905    9.35120034883741
C        -0.53410872529115    8.74126173233264    7.83543569383492
H        -0.21542236000601    9.71472432440005    8.18802096215310
C         0.09735039121163    8.17992878155502    6.73860741190170
C        -1.79956640788736    4.90471344975663    6.41535395144282
H        -2.44976604951434    5.03398129881336    5.54681941184627
H        -2.34476028069177    4.35438575115529    7.18038992053918
H        -0.92346399557913    4.33152814131243    6.10073916173481
C         1.21959040827924    8.87438065488259    6.02417134316465
H         0.88447670252724    9.23083602652707    5.04791958900738
H         2.03182248820046    8.16099246905577    5.85729995773854
H         1.58534079792945    9.72283545596954    6.60064122166457
C         1.30048145397504    2.78783704230402    3.64627707255846
C         2.15125123768213    1.67355521468168    3.44994739576253
C         2.06796849878293    0.93131396728189    2.28584406497690
H         2.73541657184958    0.08869513299537    2.15156266325899
C         1.15445677461877    1.24963823446275    1.29700977027441
H         1.11163594900747    0.67325766194503    0.38327594282055
C         0.28411074745601    2.30378028535208    1.50416756059313
H        -0.45293012929590    2.54552766885646    0.74903442769697
C         0.32266999367270    3.06089091875629    2.66328364506184
C         3.14842620762711    1.30547342926599    4.51264115784772
H         4.05021917606746    1.91311273927400    4.42044393122768
H         3.43069534637946    0.25675966191902    4.42599631446418
H         2.72422544543748    1.48140515805023    5.50013594905023
C        -0.70322192836674    4.13725001875336    2.87876122288151
H        -0.93794966633387    4.62983760912732    1.93611813709614
H        -0.33861817189197    4.87734449562390    3.59409971320247
H        -1.62298973787157    3.69669374259427    3.27364219848763
O         2.07819708414972    5.63048341098870    3.48886685725567
O         3.28795354474255    6.15816087388105    5.65851063326682
O         1.44806866818168    4.82366875705623    6.92108503604563
O         0.26558796300476    6.38629423790005    5.20063411453331
O         1.39768307001654    3.49595064918747    4.75874001836651
Ti        1.71853753958859    5.26929542993040    5.20354361995906

