104
CSD_code = MICFOT | q = 0 | S = 0 | Stoichiometry = C38H60P2PdSi3 | MND = 4
Pd        7.29537705890438    1.72097644002499    3.94777161470057
P         7.29903182056468    3.14959286049367    5.84153885564123
P         8.10134175175231    3.59313112603245    2.72847109710506
Si        6.22085347764146   -0.07564415408404    4.96653980832569
Si        7.63553658794320    0.13989864956092    2.29239203448504
Si        9.48882648529653   -0.13261179488743    3.77983601299777
C         5.82796618949713   -1.44778559717462    3.70076740866239
C         5.01778404230855   -2.53653929894766    3.95773122738776
C         4.82640464869291   -3.51359988193067    2.99204147128226
C         5.47146276075403   -3.41270927849619    1.77177832348267
C         6.31013688926930   -2.33830030106866    1.51977242675876
C         6.48727894856381   -1.35184861142210    2.47291439224659
C         7.66375213652595   -0.87318578368782    5.94816211755288
C         7.40434165469131   -1.47216378364911    7.17504458888356
C         8.40437132382739   -2.07716729585247    7.91481092954196
C         9.69734900310314   -2.09693361454910    7.42070962439781
C         9.96620603332447   -1.51454199967633    6.19537404834271
C         8.97147430136173   -0.89434871718708    5.44589898095664
C         7.88775822227186    4.82198971716686    5.27112924504769
C         7.66262101859643    5.06779340425461    3.77831119045381
C         5.55002266283740    3.42505326098646    6.40106655394539
C         5.27608350710616    4.59519848545712    7.34225821363517
C         3.81326922494123    4.55134652841822    7.78420564521701
C         2.88111871769226    4.61143855788267    6.57640881362448
C         3.18054345902683    3.47456244299973    5.60114882616735
C         4.64298675139171    3.52200536132597    5.17415566396087
C         8.26919543898128    2.98893777220901    7.42178622324963
C         7.62094353829682    1.98997156436179    8.37810304241270
C         8.49664825088156    1.76620650615236    9.60906282181655
C         9.88398118337405    1.27737942349722    9.20978014733542
C        10.53873029118265    2.27918630697865    8.26615264761215
C         9.66242175334004    2.48590784027593    7.03707480756525
C         7.00584951786914    3.81870947622270    1.24221527206723
C         5.57317602220441    3.43128911736189    1.61593576228007
C         4.70627353305663    3.36083084120327    0.36457047503296
C         4.70983831586052    4.71216404404082   -0.34632004147173
C         6.13529301192275    5.13484865694155   -0.69084414520725
C         7.01290998496267    5.18544193672300    0.56040229697926
C         9.78407493840608    4.05630891609216    2.07420778436198
C        10.77750183037188    4.18516636731583    3.22880012075057
C        12.19225253398173    4.44189943109946    2.71781018831972
C        12.62941221342380    3.33240517707592    1.76849054478495
C        11.66016695414984    3.24559367905746    0.59546666374321
C        10.24453717019295    2.97573063087582    1.09587627861277
H         7.98834149988265    0.35242504992771    0.85788463354812
H        10.11175949600580    1.18616593306917    4.12073136412857
H         5.07129665902903   -0.01593238004320    5.93398015447186
H        10.64463582087756   -0.92461207217331    3.32100513684660
H         4.51917791954137   -2.61764659985152    4.91397180956465
H         4.17269333293226   -4.35205968735209    3.19052364045465
H         5.32251833491723   -4.17283750691722    1.01677134242870
H         6.82278036824556   -2.26406935543775    0.57029191340855
H         6.39280190219267   -1.46245417918445    7.55888037890644
H         8.17842634196507   -2.53081583668181    8.87027129704090
H        10.49105938136076   -2.56547318825512    7.98647073502942
H        10.97576724666330   -1.53773566061124    5.80786801536276
H         7.40693420406139    5.60568683726875    5.86472508043467
H         8.95873172546080    4.85149915885548    5.49264828992988
H         6.60199454162930    5.26620997144238    3.60088024843235
H         8.23141884822779    5.94243382822408    3.44381139868039
H         5.29804549758896    2.48733889763794    6.91676650845693
H         5.92863363295480    4.55481840237785    8.21688366152948
H         5.45716715160605    5.54287447608903    6.82938250767087
H         3.63048893258419    3.62687568245470    8.33674778941955
H         3.60513723555058    5.38818374968342    8.45499278978036
H         1.84273513972571    4.55371559505170    6.90862414676996
H         3.01368427804201    5.56950835041178    6.06672999468605
H         2.97529414615063    2.51559629379413    6.08120454459800
H         2.53254818931963    3.55530357340641    4.72582834317958
H         4.86997492867731    2.69015089181464    4.48391541130286
H         4.82862640585134    4.46828421389027    4.65849898707308
H         8.34366449579402    3.97643406295382    7.89808459429076
H         6.64162606753189    2.34714991884252    8.70246329285644
H         7.48194589791994    1.03965386560225    7.85422640603729
H         8.58731178301108    2.70417556032873   10.16452532138213
H         8.01921960399724    1.03445227677832   10.26380167779143
H        10.50171052984715    1.14036533138815   10.09991787132288
H         9.79594303256417    0.31271450296136    8.70596481668389
H        10.67762884802836    3.23348268629181    8.78237374364858
H        11.52178598020859    1.91680725009823    7.95904254312680
H        10.14804740219537    3.18836474647516    6.35274520885342
H         9.54742796696398    1.53010611364399    6.51437321048801
H         7.37027903570710    3.06622803592278    0.52801269761656
H         5.57747700015827    2.45390495818896    2.13689439458008
H         5.14946853991709    4.18061937728025    2.28981991695601
H         5.09610856759223    2.59151346516366   -0.30538222867702
H         3.68544816356887    3.08334123160477    0.63404469362015
H         4.11108006220318    4.65757743404449   -1.25753747784716
H         4.25718553043812    5.46430159747424    0.30488702055254
H         6.56178416938131    4.41960082314990   -1.39808560260728
H         6.12585377942962    6.11539215098967   -1.17239347236424
H         8.02619676955273    5.47251373539234    0.27322439479485
H         6.62579751461045    5.94693290125716    1.24139807387819
H         9.70921637378381    5.02212612516794    1.55766722885880
H        10.48195895761699    5.00634920738190    3.88688471792860
H        10.76574811676708    3.25911993290608    3.81149418625242
H        12.21973613639394    5.40060684362509    2.19241637132322
H        12.87989973965889    4.50531058024833    3.56411345601547
H        13.64115398764077    3.52714649210064    1.40713459932614
H        12.63671882519735    2.37942145095124    2.30197609805791
H        11.67804595844586    4.18651828378703    0.03863921682416
H        11.96461837701898    2.44799619158252   -0.08459839114719
H         9.56226962491935    2.92659957142439    0.24423118717591
H        10.21706484031273    2.00615444681642    1.60344010419097

