87
CSD_code = MICGEK | q = 0 | S = 0 | Stoichiometry = C40H34N6NiO4S2 | MND = 6
Ni        8.89395954065006    1.16340069609554    5.98567103484454
S         8.53797299837111    2.64399082762680    8.68477149394743
S         7.81518080814719    2.21543341603641    3.25734082286626
O         8.41791757299265    4.05848005318272    8.96884510758917
O         9.84736657427470    2.06895136304485    8.93365481488927
O         6.65871009602468    3.02657220866041    2.94063331118835
O         7.67206709629828    0.79585916951286    2.98939101533193
N         7.94992240929603    2.24236426396317    7.25120757062671
N         8.39880496184566    2.51024252267502    4.71769687720891
N        10.95571826029650    2.26496175543610    5.93528887804432
N         9.84787678389285    0.19788868081961    4.61890440395597
N         6.92747517773518   -0.10515420082242    6.02377005811078
N         9.25966156938202   -0.14560807367581    7.35971093472112
C         7.14010118868080    3.25821646083548    6.60806403473504
H         6.97238959703357    4.08858756037172    7.30085035341315
H         6.17601434041208    2.82254490347558    6.30771209271590
C         7.89417255952492    3.70696833104985    5.36110339817029
H         7.24638546478128    4.25170934900693    4.66740824337943
H         8.73644172426033    4.34629449722390    5.66463240761077
C         7.43704370533903    1.81676707434982    9.85742284188479
C         6.08698014726406    1.71371060034201    9.58978182024165
H         5.70169778121361    2.11117022151979    8.66415944336803
C         5.24870263728958    1.10052175879091   10.50526123022547
H         4.19104018114962    1.02355827631407   10.29573495672280
C         5.75153999035279    0.58435413826401   11.69326844369272
C         7.11417394871385    0.69674587396765   11.94762117753472
H         7.51697226926671    0.30252948911445   12.87009278809786
C         7.95231187500676    1.31241997280993   11.03562990854946
H         9.01209103702260    1.40793275131395   11.21330932266232
C         4.84553619201878   -0.06793644776667   12.69391721438078
H         3.90713984555187   -0.36697975457036   12.23390722902631
H         4.62016566092454    0.62867400195336   13.50147697870091
H         5.32005713625361   -0.94300070053559   13.13302624200443
C         9.12115058389728    2.77482050921360    2.13810172770968
C         9.85853561555019    3.90019863035582    2.44571084454471
H         9.66108360338895    4.42289043615780    3.36818921877362
C        10.84043107490914    4.33958930846390    1.57426013298855
H        11.41529533056388    5.22263963819276    1.81569429649246
C        11.09432927830809    3.65856597426536    0.39006810401662
C        10.34118257705518    2.52746822334466    0.09428258926698
H        10.52635669982245    1.99163040948221   -0.82614947136973
C         9.35762853204173    2.08908399137648    0.96264710018274
H         8.76425437975026    1.21298067384331    0.75228535231105
C        12.14848790935022    4.13781046646854   -0.56218223314200
H        12.84851764718124    4.80482352524995   -0.06540152404733
H        11.68687518688800    4.68350651224701   -1.38516693360754
H        12.69721521358414    3.29929553730300   -0.98589107420460
C        11.38560898653872    3.34908267754248    6.53982192612370
H        10.97012305733086    3.53768835940766    7.52110680886574
C        12.34218656792583    4.20530187658539    5.97400282005529
H        12.64426489316955    5.09433191672678    6.50566611085268
C        12.90366065963985    3.87851567951513    4.76419067404570
H        13.67219218643288    4.49286857764301    4.31600846423455
C        12.46948098425581    2.71746807542190    4.10006277956773
C        11.45265318124134    1.96391875362532    4.72237782125231
C        10.90003149500474    0.82120067992185    4.05149181884698
C        11.45460240315833    0.41223496245434    2.82055079867044
C        10.89176742636264   -0.71217158764397    2.19596559588228
H        11.28585041917665   -1.05030577339781    1.24838814728399
C         9.84017716737663   -1.35049017424782    2.80332805910632
H         9.37591555836022   -2.21316168661625    2.35282747486292
C         9.33540530562149   -0.85021857202310    4.00725666358570
H         8.49083541441242   -1.32727497684159    4.48294609246028
C        12.99691103100117    2.27950396257511    2.85292519124849
H        13.78403512700162    2.86184329836517    2.39657083095806
C        12.52275918803306    1.16273855552047    2.25097871545845
H        12.92886836472341    0.82891673400756    1.30753583083588
C         5.77949652465221    0.04829805048658    5.40369897468164
H         5.83521633508431    0.46931734635547    4.40806344106497
C         4.55327691793190   -0.32658699868551    5.97318980035244
H         3.63717048509492   -0.15733128149128    5.42873596774447
C         4.54291151918844   -0.93513653803546    7.20431562215112
H         3.62109994402986   -1.27325880665943    7.65696047321320
C         5.75949412595387   -1.12487821944637    7.88424666435035
C         6.92731473656788   -0.64657902863023    7.25502761948046
C         8.18819209646772   -0.72546596494927    7.93712781693364
C         8.25469350388650   -1.37698765546862    9.18628794993520
C         9.50720345954298   -1.44342379061806    9.81766513301534
H         9.59574184867840   -1.92866344473788   10.77902335940858
C        10.59240978825710   -0.87655974064757    9.19885971453364
H        11.56989003256636   -0.90169468683180    9.65340575702496
C        10.42067682359368   -0.21807175800573    7.97722588232611
H        11.26157829353686    0.25661816256095    7.49262597384784
C         5.86369575133307   -1.76274109725905    9.15227673147479
H         4.96073621643580   -2.13313301670521    9.61541478107469
C         7.06379096397714   -1.90187107392321    9.76488356375098
H         7.14074645286779   -2.39321667220375   10.72354756910411

