87
CSD_code = MICGUA | q = 0 | S = 0 | Stoichiometry = C40H34CdN6O4S2 | MND = 6
Cd       18.92259179155255    2.99834340859337    3.09016752779150
S        16.55222178283485    1.63964391721472    1.92923635326125
O        16.43096268396978    2.92375699078611    1.25606842330671
O        15.78762311701884    0.55452849121000    1.35106178230573
N        18.09835291158223    1.31339553332275    2.02697057562457
N        17.34297159403222    4.93009050945862    3.03512072495853
N        18.16700320813934    3.76444643997070    5.32934462416010
C        18.44040113768031   -0.01404739652493    2.47288054729942
C        15.77496424925343    1.89384213437635    3.55245137886012
C        14.55496600837070    2.54565719532089    3.53504141893437
C        13.82479781662896    2.68882406541577    4.70071004622131
C        14.29859073853828    2.16443689350387    5.89843048997157
C        15.52371490675741    1.50961816527633    5.90106965149755
C        16.26451105580003    1.37478758260085    4.73644124949466
C        13.48757134960710    2.27718506347242    7.15430333340120
C        16.92318327716269    5.44105908891830    1.90247996735710
C        15.69951831773882    6.10930103276728    1.77099944329135
C        14.90393048554359    6.26659534410699    2.87801546716837
C        15.33833658143507    5.74950359897703    4.10989757904122
C        14.60115479452454    5.90356788820319    5.31854299671467
C        15.05848263926852    5.39355304059999    6.48658226767948
C        16.27528568417804    4.65589977340584    6.53487421670487
C        16.77723350872006    4.08058593792930    7.71445228848728
C        17.95238657239987    3.37121285728790    7.66774898129266
C        18.61772105698115    3.23222082615152    6.44159354525937
C        17.02848087624499    4.47018486849901    5.35342273900144
C        16.56906603098664    5.05496050007028    4.12215396530365
H        17.52492869552062   -0.56544291223501    2.71567849999987
H        18.92123502806265   -0.55200585194839    1.64255984446850
H        14.19611862145264    2.92905948675262    2.59215005495744
H        12.87161103588223    3.19855176852112    4.68242819077313
H        15.90163565939327    1.09202459394750    6.82417323864471
H        17.21577620287170    0.86689874788038    4.75738268218069
H        12.90353085917968    3.19452872740423    7.15728754872537
H        14.12749200696232    2.25678089165124    8.03315481536915
H        12.79449696215217    1.43850389972746    7.22349726586199
H        17.58440519017178    5.33160102457005    1.05604997089018
H        15.39585442507444    6.48883938368978    0.80823728671052
H        13.95506029959170    6.78195970199983    2.82069808531210
H        13.66858802595357    6.44795923809125    5.27964541311546
H        14.50492435448129    5.52513449680909    7.40491420950574
H        16.23217966861685    4.20509584132613    8.64000853765573
H        18.36632072048801    2.92082040042221    8.55651512045350
H        19.55021990236442    2.68962618067294    6.35327199437089
C        19.40501873514073   -0.01404262404752    3.70748002289975
N        19.74696969366261    1.31340774310435    4.15346511115997
N        20.50206926318011    4.92977812557317    3.14526815133943
C        20.92185586972849    5.44053213110388    4.27801057769448
C        22.14548901438516    6.10877860938976    4.40960485241740
C        22.94107559194901    6.26627271461838    3.30262281932136
C        22.50670285743876    5.74936565103871    2.07065057807275
C        23.24391888395658    5.90359403769139    0.86204578939777
C        22.78667773734625    5.39364740497288   -0.30605658469638
C        21.56995468095373    4.65587250169317   -0.35445277043425
C        21.06813487848429    4.08054002566581   -1.53408188774765
C        19.89295702726969    3.37115691050390   -1.48750111631504
C        19.22739881630557    3.23228607249272   -0.26144061521011
N        19.67812697923348    3.76435491624812    0.85089817758118
C        20.81669230741573    4.47005915720050    0.82694408924176
C        21.27600230250482    5.05478797476732    2.05827109383873
H        18.29527965193707    2.68917960338222   -0.17308545752073
H        19.47923330105429    2.92060627396673   -2.37626913898214
H        21.61320729650670    4.20517315623638   -2.45960852706549
H        23.34025355679288    5.52537190056567   -1.22435749293232
H        24.17645171886335    6.44804195179038    0.90103078317223
H        23.88999654414944    6.78154725080573    3.36005994025936
H        22.44912965159105    6.48813929079033    5.37244093887720
H        20.26051213131212    5.33113016574399    5.12436424612061
S        21.29309241254070    1.63967555419129    4.25129890700079
O        21.41431508698630    2.92377997659307    4.92450921310463
O        22.05769584853740    0.55459475637683    4.82953344425868
C        22.07039945505650    1.89388497524471    2.62811896067345
C        23.29036056633403    2.54576884140256    2.64546132064139
C        24.02049449787823    2.68888968116983    1.47976201217748
C        23.54671910244723    2.16436366407460    0.28209664444968
C        22.32162364434461    1.50948931346499    0.27952659101827
C        21.58085180342090    1.37473362187097    1.44417251612736
H        20.62959393463536    0.86683389761829    1.42327984129276
H        21.94369515497086    1.09180947783695   -0.64353724916079
C        24.35770869021629    2.27699702592047   -0.97380221895549
H        24.94177295320865    3.19432307849554   -0.97688631442806
H        23.71776164788304    2.25652989190764   -1.85263296018611
H        25.05075347043100    1.43828994806752   -1.04294315790298
H        24.97366282196163    3.19866440187346    1.49798897681395
H        23.64922868125628    2.92924610681020    3.58831780842056
H        20.32053171108093   -0.56535790941955    3.46465051488397
H        18.92422819047892   -0.55208661899407    4.53776722590212

