81
CSD_code = MICNIY | q = 0 | S = 0 | Stoichiometry = C39H34AgClN2P2S2 | MND = 4
Ag        7.80890532202116    1.44604151470454   15.79823884631155
Cl        8.08968630475842   -0.91410770195457   15.16663895722984
P         7.67134625183855    2.74786428045133   17.94062428556498
P         9.58015707588525    2.97613402144830   14.55783646772853
S         6.13542173834755    2.18493527305818   13.68019113182672
S         6.61174723844849    1.67244083514114   10.75038373326742
N         7.12804173892788   -0.03292516120441   12.55039887263182
N         7.46068876228232   -0.64189489167035   11.41621016410345
C         6.65672460308200    1.21431974176431   12.45527370136784
C         7.25852541266942    0.06968028589531   10.37883278743531
C         7.51498280310045   -0.36168907116893    8.98980355756260
C         6.63731784370155    2.24356996264515   19.35693766019258
C         5.45505995800431    1.57659841415121   19.05002860332143
C         4.58424922958884    1.20275113995494   20.05616545319147
C         4.89324674177083    1.48811115693621   21.37627668240788
C         6.07246754251154    2.14614509103534   21.68638531706298
C         6.94450418222334    2.52807472305045   20.68301522053151
C         9.31594360377516    2.97028286021246   18.68070907504507
C         9.86217643899758    1.91810157956199   19.41406836357788
C        11.15563252346244    2.00264948317437   19.89207187276687
C        11.92310211353733    3.12565323632501   19.62398706548064
C        11.39296764199705    4.16273465173476   18.87520675191688
C         7.07328209210981    4.45766877964806   17.73229829956601
C         7.21847568588138    5.41368259795670   18.73388797726876
C         6.73252342893230    6.69213599349680   18.53981010391004
C         6.08564558678598    7.02073345619212   17.35812564875026
C         5.92151470457724    6.06664200331937   16.36951624568888
C         6.41707596651925    4.78829665141899   16.55388782452420
C        11.29431344040813    2.81158634465022   15.15910212154462
C        11.54451338588993    1.90728948622849   16.18289763153639
C        12.83229104171504    1.72903504102370   16.65526230721962
C        13.87452697214304    2.45457619631214   16.10405809705902
C        13.63217555139565    3.34525191942038   15.06902710348433
C        12.34813738449674    3.52056709336734   14.58970476509171
C         9.30956249061069    4.77201831014377   14.49705912572539
C        10.05992046903078    5.67681607104991   15.24033750772105
C         9.72327877099119    7.01881520053165   15.24287004224771
C         8.64267493585443    7.47049228811456   14.50460515043654
C         7.88628427577702    6.57225353209196   13.76877091595726
C         8.20615716638457    5.22879743846935   13.77695508855272
C         9.88395978558354    2.53059105880275   12.81401527351080
C         9.94998072320331    3.42991315384963   11.75753927806080
C        10.20223204475520    2.96721066834838   10.47730862150094
C        10.39808241301625    1.61629651645127   10.24585537287265
C        10.33440175844674    0.71586527466922   11.29819395471458
C        10.07426587943641    1.17053861446790   12.57629926713932
C        10.09601046767991    4.08730314498978   18.40069053387128
H         7.41215659576980   -0.47779529202639   13.47998255490675
H        12.15631782338709    4.20488046137107   13.77427581438318
H        14.44988084625765    3.89958132500314   14.63132761791999
H        14.88073910285455    2.32071638042421   16.47326409094532
H        13.02166059021693    1.02398566371323   17.45077505303303
H        10.71837211722970    1.34007485450272   16.60049668173984
H        10.91044367795506    5.33095278848643   15.81072527124756
H         7.04133584456712    6.92002257377102   13.19256581706587
H         7.59701518655954    4.52051537823504   13.23123406900882
H        10.00307277430467    0.47242754202771   13.40185061708841
H        10.47539176444494   -0.33998795959200   11.12180229180359
H        10.60238500429776    1.26422331109062    9.24490470176079
H        10.24811216233133    3.66858236230487    9.65651594101458
H         9.80073027551462    4.48658658865811   11.92806661023060
H        10.31022857036901    7.71650241829883   15.82320968561903
H         8.38767964311123    8.51996593077877   14.50622040579221
H         9.26325300612707    1.03633096808903   19.60350898780750
H        11.57023184883869    1.18898555722733   20.46923649510408
H        12.93573888708212    3.18905306352635   19.99369459289051
H        11.99454092723166    5.03352143146634   18.65756366814961
H         9.68029326435256    4.89398776440529   17.81349563353083
H         5.23273652090148    1.34757207991959   18.01355399265380
H         3.66857879707528    0.68413806465879   19.81362056434596
H         4.21784466152114    1.19243568671706   22.16538119241796
H         6.31451743900951    2.36329573467389   22.71674747984756
H         7.86777208565202    3.03208174484119   20.93262353234004
H         7.71570492593116    5.15669004233207   19.65849556178015
H         6.85350043011528    7.43553691115293   19.31449471618256
H         5.70538507387374    8.02122917359571   17.21340921989054
H         5.40792388464646    6.31487583429145   15.45334144558479
H         6.29544029020967    4.03962552249832   15.78162708820837
H         7.97225021188118   -1.34694767074004    9.00147965368235
H         8.17640912353748    0.34669310759551    8.49419923651888
H         6.58177515035529   -0.40268760357240    8.42934688737745

