115
CSD_code = MICQUK | q = 0 | S = 0 | Stoichiometry = C46H64ClNiP3 | MND = 4
Ni        0.72219454124604    8.94838218748354   14.42584947189167
Cl       -0.54956115957380    7.43181733983535   13.67191005317938
P         0.02493660746545    6.64771613573682   18.34634585921005
P         0.56971780456337    9.96584424204619   12.48299375118093
P         1.82799254188749   10.66501241246085   15.21151393521250
C        -0.10908110327692    7.76730247902209   16.89814580353255
C         0.87369865930895    7.92551070511799   16.01636998790787
C         2.17265393441810    7.26377426313935   16.15870672012417
C         2.91877550491601    7.41687687731237   17.32860955445630
C         4.14431066855451    6.79309044961057   17.46220636966793
C         4.64856991059427    6.01444811473807   16.43300833500754
C         3.91112319099917    5.84668965182941   15.27186428819572
C         2.68241843818853    6.46275724957880   15.13431730484402
C        -1.37443600598244    5.53353412558353   17.95102756142505
C        -1.72249317581009    5.24083529785348   16.63714881649102
C        -2.72613140374915    4.32457502464538   16.37608835443841
C        -3.37705375680058    3.68438595735797   17.41689835023989
C        -3.01771391086178    3.95678714447510   18.72782029558284
C        -2.01584963964358    4.86967598904352   18.99390533044122
C        -0.83076960076829    7.77212954255780   19.52612809606039
C        -0.07224950073043    8.35430947270247   20.53490571424961
C        -0.65206739686541    9.23109423872735   21.43435993756671
C        -1.99982223353265    9.53302293386364   21.33326896948040
C        -2.76203264235875    8.95806869683193   20.32911566879523
C        -2.18259340624503    8.08445601675121   19.42759526162816
C         1.18552845520327   11.71993129518383   12.63381254120225
C         2.12594168436201   11.88740518932466   13.82958120996826
C         1.76731822974158    9.21416962635518   11.27000618591458
C         3.00907966602677    8.85035958068911   12.08762626273080
C         4.04537550622876    8.08799784002724   11.27227375410507
C         3.42401098428164    6.83616302803111   10.66528984247065
C         2.23621764574784    7.22524063022510    9.79316975751056
C         1.18193512311596    7.96322614714127   10.61419034175211
C        -1.00415184564583   10.12411558573711   11.52021376180701
C        -2.12958368669820   10.62124877176580   12.42710427438738
C        -3.45916818855541   10.57813181305678   11.68110021834159
C        -3.38252270077773   11.41749199492337   10.40881737455796
C        -2.24558790611203   10.93255780311112    9.51374749072425
C        -0.91330825877926   10.98064966124747   10.26045897441148
C         0.71089672758331   11.62884509027345   16.34600686379437
C        -0.69708426044197   11.49819514006696   15.76024035952720
C        -1.74985005732099   12.15595072988970   16.64354699613923
C        -1.69663884758374   11.58264998153120   18.05449007270341
C        -0.30517724384631   11.77703841205368   18.64411010087388
C         0.74648913305750   11.09034972385043   17.77656083076108
C         3.46742050487112   10.66423010081563   16.08570395596253
C         4.51394813950429    9.88296433443131   15.29045234285551
C         5.79058595145069    9.73265458892539   16.11210077848241
C         6.33727718340476   11.10261008597709   16.50257227034618
C         5.28626167103132   11.89612806096445   17.27297203268585
C         4.01009992361067   12.04645994241720   16.44595976776401
H        -1.08359407198396    8.23703778479899   16.78978959114050
H         2.52600883434222    8.03097408764578   18.12820522814846
H         4.70999234300521    6.90929240059169   18.37630578647204
H         5.61025499206138    5.53382964891849   16.53879671067069
H         4.29508609463498    5.22747884716766   14.47354126488426
H         2.08503594002342    6.30793140869644   14.24404485966250
H        -1.21805373354055    5.73480102038976   15.81883360041995
H        -2.99856925653914    4.11183828767972   15.35243784715875
H        -4.16091154251465    2.96990351835754   17.20944412486879
H        -3.51858338751093    3.45323836748275   19.54288664441390
H        -1.72985215328612    5.08408573562881   20.01591269685404
H         0.97789681541769    8.10664236016521   20.61384427983847
H        -0.05516488874452    9.67545844915417   22.21871228762975
H        -2.45709834502108   10.21336801928015   22.03720923686277
H        -3.81413776549499    9.19275670007091   20.24905341207884
H        -2.78364397320294    7.63287872456468   18.64992172915284
H         1.67714323608352   12.03414502383091   11.70934847458755
H         0.30086998589195   12.34755068140598   12.76849123392429
H         2.06060166657821   12.90187980112250   14.23489835701794
H         3.15739151752958   11.72902115094452   13.50546443974608
H         2.02914911387411    9.95460404975896   10.50217683723203
H         3.46232961187228    9.75829423422366   12.49152207570840
H         2.68842847970456    8.22809002309714   12.93728464695235
H         4.42384762599541    8.72981373700943   10.47152848421465
H         4.88797074739193    7.82061291808248   11.91404969356811
H         4.16661740019743    6.29724016926988   10.07323918260399
H         3.08431019783635    6.17535469575744   11.46522438032169
H         2.58108263536509    7.86707493115478    8.97701923876346
H         1.78876694570238    6.33342630099091    9.35029075368009
H         0.79663513156173    7.30042087652755   11.39320448535940
H         0.35115726983213    8.23375877115294    9.95983416608311
H        -1.24907069301793    9.09011109988944   11.24509395256453
H        -2.17989662024229    9.98682522066122   13.31635971024795
H        -1.93481697399284   11.64889136980793   12.74712080445243
H        -3.69197782818267    9.54337322707538   11.42234628842829
H        -4.25834274709777   10.95048595652742   12.32550517267748
H        -4.32916060518387   11.36080520302295    9.86785292050248
H        -3.21282674447686   12.46443394592998   10.67391616672630
H        -2.44644210015314    9.90554171173281    9.20034109394651
H        -2.18814171646667   11.55195593311063    8.61560519355469
H        -0.69250091639375   12.01680572060103   10.52847430792196
H        -0.11417457529806   10.62402371980948    9.60730029904676
H         1.01005773240333   12.68593899066926   16.34288667025493
H        -0.72208585076834   11.95226663974887   14.76689686914514
H        -0.92697453957035   10.42666792933919   15.64529659166612
H        -1.56695388208894   13.23370851616665   16.68343635941279
H        -2.74017971727351   12.00112375848536   16.21008606235219
H        -2.44162816817086   12.06965649646868   18.68655194638882
H        -1.92764716044921   10.51650415293420   18.02736977490055
H        -0.08426517862921   12.84619074119657   18.71102523592195
H        -0.26966270641500   11.36058297987245   19.65233571027634
H         0.55170003237868   10.01503088645165   17.76126117728327
H         1.73204785208780   11.25123277168639   18.21810255302670
H         3.27858258585408   10.10269520986107   17.00947030821028
H         4.12159399343723    8.89733641603610   15.03148367615390
H         4.75516082510089   10.40985907972746   14.36370117878565
H         5.57129238371650    9.15382732563879   17.01108323143439
H         6.53623478888862    9.18192088147034   15.53544389508689
H         7.23488384317437   10.98626223569505   17.11277639540076
H         6.61699824794346   11.65319938636003   15.60075162570764
H         5.05321285687821   11.37675582897823   18.20532913807500
H         5.67749368999027   12.88347853481705   17.52841951036706
H         4.24173277000669   12.60582175033058   15.53700978010010
H         3.27363925550044   12.61682194872898   17.01473849744476

