106
CSD_code = MICQIY | q = 0 | S = 0 | Stoichiometry = C41H60ClNiP3 | MND = 5
Ni        8.13741822982076    4.20452423497986    6.14486148684177
Cl        7.47730093123786    5.26142640071475    8.06402450285985
P         8.24612937669297    2.04875960190856    6.69401576076910
P         6.39765070155323    4.56787531432651    4.87831374624222
P         9.34294105651316    5.53562867262121    4.86718562817520
C         9.44549296542826    3.31088072828089    7.10509182930192
C        10.51062087605026    3.38834072166992    7.87864270518396
C        11.08740209657925    2.24056203169345    8.65497099172684
C         9.12159236525347    0.73876940311575    5.77548746684923
C        10.49227968500717    0.73517763787170    5.55097905232730
C        11.06783658433092   -0.27230815522427    4.79650018350984
C        10.28445110980136   -1.28166111999117    4.26316410702860
C         8.91654135895164   -1.28621838713016    4.48704143540583
C         8.33862567040199   -0.27773117325664    5.23305235639925
C         7.81274258827409    1.26314346159696    8.28150842390035
C         8.05346094263270   -0.08289894327323    8.53531749144283
C         7.69616486170201   -0.62747300867333    9.75550819372729
C         7.09609826406819    0.15929497510724   10.72444608928194
C         6.85152564945636    1.49868312025674   10.46927501512803
C         7.20151128331266    2.05162385678166    9.25184102689883
C         4.77534896843279    5.20792313902277    5.51114358179477
C         4.27352399846334    4.19024388777068    6.53921916667591
C         2.96741414876297    4.64378184069627    7.18099289693438
C         3.15215021838604    6.00440346443362    7.84178045307270
C         3.61712409180359    7.02166512279779    6.80712682748530
C         4.93351711749690    6.57491798981757    6.17862856591380
C         5.91268847536485    3.05429496224725    3.89020309553227
C         7.11780549063928    2.59905005417323    3.06733910857624
C         6.83681788603293    1.27122278836300    2.37360825718821
C         5.61304079747424    1.40210034114235    1.47257484662303
C         4.40687651442938    1.85382570917425    2.28960910930428
C         4.68356919121344    3.18227317142580    2.99440560001740
C         6.84839191849471    5.80190883673574    3.55960074455815
C         8.35893222245584    5.88812879419636    3.32823976719741
C         9.69256890301352    7.23592312719522    5.55881647050506
C         8.42079632352081    8.00950846822810    5.71388739681812
C         8.02679516575356    8.57365797625907    6.84436464135172
C         8.82705947413823    8.52046935254395    8.10231637294288
C        10.29794975410961    8.29464118238836    7.76889721000527
C        10.41679667189544    7.05280237824796    6.89438736524141
C        10.99874965446645    5.03760950928379    4.17555566796521
C        11.62954485219595    5.96254798883681    3.13801530125242
C        13.01651684504836    5.43999632766369    2.76215667290834
C        12.93886468018562    4.01464819245701    2.22225128167422
C        12.27403820402128    3.09173013905026    3.23972325000278
C        10.89313751094901    3.62554513167532    3.60152231796566
H        11.03447043369357    4.32833793167838    8.01313493189102
H        11.10807367471869    1.51560989152800    5.97263486160463
H        12.13534956368443   -0.27119219508792    4.62894782795634
H        10.73814779431280   -2.06612676669038    3.67548598841062
H         8.30289581471347   -2.07487696749748    4.07578713630950
H         7.27175090912727   -0.27325669557892    5.41776786802560
H         8.52531362113921   -0.70685619601333    7.78881399718413
H         7.89108223889651   -1.67292958544840    9.94906096348815
H         6.82117427298519   -0.27280832462273   11.67569796983234
H         6.38469182195303    2.11857988340202   11.22024471836053
H         7.02015928830217    3.10057660973745    9.05912436046469
H         4.07146049010537    5.29420525570002    4.67231554846408
H         5.71513782235917    2.28241737469020    4.64806547643910
H        10.32779268051038    7.75829890266421    4.82867454586333
H        11.65445179519505    4.99507408848420    5.05710870383578
H        12.13819185664368    2.09827812511306    8.39982952533002
H        11.02843943912860    2.46485617188846    9.71989037866675
H        10.54085810495151    1.31984111626218    8.46222948672854
H         4.13058342355944    3.21208589492374    6.07153980073245
H         5.03877996946740    4.08998195136905    7.31484324236952
H         2.18646547027565    4.71047936129516    6.41708199529937
H         2.64921557294327    3.90632976757679    7.92102660650369
H         3.90837421248792    5.92359040300863    8.62413574048576
H         2.21569559109234    6.33159241219334    8.29927720369540
H         3.75501172128468    7.99669274436650    7.27855322437930
H         2.85351850686933    7.12927497482177    6.03009157039192
H         5.69892520000933    6.50533120910272    6.95453294183242
H         5.25103816169872    7.32696548269569    5.45262933447581
H         7.34399283685994    3.34734514194534    2.30415330252498
H         7.99213944370441    2.50188413930452    3.72116003072101
H         7.70802308211254    0.96754354449938    1.78829787427481
H         6.65582526859425    0.49805584763548    3.12227180494578
H         5.81513969612093    2.13442343816400    0.68663771910453
H         5.39852126098626    0.44643295631872    0.98979969524634
H         4.17404432538020    1.09249788088702    3.03812871710801
H         3.53483815706139    1.95999847706953    1.64024541358756
H         3.80599345622185    3.45620164800724    3.58153549996501
H         4.84319250841723    3.95878196830489    2.24216887862428
H         6.32734259978951    5.56267469347604    2.62858081301527
H         6.47197810010245    6.76457401810920    3.90804443687401
H         8.64010084278648    6.86961784143030    2.93331359083232
H         8.66402596999658    5.13416473936370    2.59840478346192
H         7.83035578252198    8.12951576487405    4.81572626456036
H         7.08686907874349    9.10627191838317    6.88491968875986
H         8.45390538423290    7.69003378022869    8.70940610843104
H         8.69352255565351    9.44251574797785    8.67191870846619
H        10.87750007387123    8.15994522599879    8.68392590794014
H        10.69509972552801    9.16462694918490    7.23779630504630
H        11.46652269531295    6.80126489102501    6.72146286140907
H         9.93729588774570    6.22536354323511    7.42632703965533
H        11.00489376491234    5.99905750658739    2.24295567394658
H        11.72703286504502    6.97864474562759    3.52411806957271
H        13.65802415387411    5.45678143050592    3.64651837366045
H        13.46470293263338    6.09630798165878    2.01278997026321
H        12.35799993155637    4.00943360828232    1.29664560821999
H        13.94209589567566    3.65304386927730    1.98779085165303
H        12.89084502790345    3.03638783606915    4.13977084087569
H        12.18539310514802    2.08289060638567    2.83073676927759
H        10.41145847561608    2.96867706723823    4.33075058089050
H        10.27416998874460    3.63346912283969    2.70077840583790

