83
CSD_code = MICTOJ | q = 0 | S = 0 | Stoichiometry = C39H39N2NiOP | MND = 4
Ni        2.79375696986515   11.06308823622780    6.20132802278066
P         1.23377371873754   11.74162761864707    4.86986678318195
C        -0.30083764052805   12.13042384664310    5.77898540059814
C        -1.45060003829082   12.55237026853540    5.11846373422918
C        -2.60818294244357   12.78642317476990    5.83617643035145
C        -2.62905109989433   12.58898363829837    7.20884303262104
C        -1.49103690844707   12.15188943595066    7.86565370883347
C        -0.32880572547391   11.92046649127541    7.15138693960068
C         1.47762869374527   13.19360411746867    3.79992840153541
C         2.30236294316967   13.06258022727836    2.68420263995848
C         2.58964527862682   14.15772856694207    1.89211770021175
C         2.07161371585034   15.40158546672108    2.21700492004387
C         1.27413956478266   15.54484914341553    3.34015855217078
C         0.98179742992436   14.44927729593831    4.13332344135873
C         0.50305717035530   10.48872861844182    3.75599319029537
C         0.12909742661147   10.70022332029060    2.43565570934498
C        -0.43545379095660    9.66770031415824    1.70510696372012
C        -0.63575600390923    8.42660220895944    2.28488662727944
C        -0.27815718144242    8.21504971399555    3.60789714259135
C         0.28634603786549    9.24153993392096    4.33877610313005
N         3.35216388726942    9.35959126313752    5.40286775014689
C         3.50761302298496    8.25021992212463    6.04561953250981
O         3.95189716350897    7.21145864514680    5.30155104596954
C         4.13533786325786    7.67922860843536    3.97343868922373
C         3.75548048877711    9.17428045089926    4.02221090409034
C         4.86748396153594   10.17806715520062    3.65348274104472
C         6.11330359362352    9.99095867026166    4.51559093674058
C         5.16977914787649   10.11592487519412    2.15437759772776
C         5.99542239633082   11.30136739117025    1.66641604200525
C         3.20335141857880    8.03143311726694    7.42939382256346
C         3.05500011387123    9.12242852297735    8.33745824817504
N         3.28509760745415   10.40242690105900    7.97887195548706
C         3.62853168096379   11.38977749559791    8.86055497913956
C         3.24503679160734   12.68706062679157    8.42925067108915
C         2.98198929927481   12.80612209120567    6.99654401212595
C         3.23814834314267   13.74605206671031    9.32832835355762
C         3.77421549963408   13.56242009217442   10.58742185851088
C         4.37555783237845   12.35228437415381   10.91541619227761
C         4.34612684356922   11.25759835038954   10.06825160346693
C         5.11451577826840   10.01880638609057   10.42518994728337
C         2.56019292626026    8.80491753701722    9.62694621854466
C         2.33542984372896    7.51280079070157   10.01808456328193
C         2.59445214846222    6.44732189566825    9.15243471005639
C         3.00373443663220    6.71703064670073    7.87115000249589
H        -1.43353046658081   12.69831441809859    4.04686173080722
H        -3.49968244716147   13.12057819250446    5.32527348136997
H        -3.53735236406573   12.77267374096965    7.76389197007284
H        -1.50892173899417   11.99107265321316    8.93341451288499
H         0.57464390892994   11.57606013457605    7.64685734178960
H         2.71534327736073   12.09243099136853    2.44201292508943
H         3.22160339762333   14.04480731812962    1.02281586212544
H         2.29679860051481   16.25880368366901    1.59996873567212
H         0.88053779912597   16.51625646215243    3.60196974051907
H         0.36570157472477   14.56645375968417    5.01369521361417
H         0.27789125765909   11.66583490904339    1.97354476339178
H        -0.72163792510410    9.83566860674040    0.67673763593516
H        -1.07250058510714    7.62514917899123    1.70741611828783
H        -0.43802876498442    7.24964484228744    4.06547328358652
H         0.57941866025181    9.08939558507069    5.37142553581812
H         2.89486534154993    9.37373135886975    3.36694198194750
H         4.44891943142143   11.16953407237272    3.88739732992831
H         4.22386485713034   10.09543206954822    1.60474161981152
H         5.69757327585848    9.18704278638999    1.92583000032453
H         3.94573286610521   12.75188263172780    6.42051741614084
H         2.44122933087499   13.71998240641655    6.72784483107920
H         2.86889192531375   14.71352297054371    9.01869591060079
H         3.79086092158944   14.37780274170688   11.29555994538515
H         4.88422731335661   12.25757965380933   11.86519221982028
H         2.32106660478744    9.62454052618218   10.28898440501723
H         1.94556990767665    7.31463601812003   11.00694689216921
H         2.43911793590269    5.43030545391977    9.47803793755868
H         3.15612200411110    5.91739409738316    7.16159953990017
H         6.02956624989134   10.29690068110450   10.94657676510351
H         5.37772480668029    9.45813099688572    9.53038042903394
H         4.54534634750159    9.35475412152834   11.07649063810521
H         5.17441341394005    7.50457340031295    3.68398147926597
H         3.48084880408450    7.10778955323769    3.30803817547669
H         6.80575357452345   10.81428909363656    4.36302666992260
H         5.83601766373032    9.98001428006355    5.56889506528012
H         6.63037158428638    9.06294080180476    4.27968404902698
H         6.10832811078351   11.26105019930213    0.58530722142085
H         5.50764825907740   12.23842919316967    1.92758410257899
H         6.98745557865721   11.29547690153187    2.10947870273430

