52
CSD_code = MICVIE | q = 1 | S = 0 | Stoichiometry = C18H24MnN6O3(1+) | MND = 6
Mn        3.44745796984568    0.40451263473229   18.87593833321995
C         2.59013873076064    1.35805398734029   17.63546984528256
O         2.12028169808465    1.94860641161157   16.77334202896019
C         2.46262090792681   -1.02161854299872   18.44556028832157
O         1.85769655570634   -1.90945396059701   18.05301146586894
C         4.49179563245067   -0.16333527538480   17.54438219916848
O         5.03152415896932   -0.60229009882955   16.63293209825411
N         2.21476803448346    0.90839856685675   20.51322461087896
N         2.76288184708312    1.13341038349798   21.73085350750441
H         3.76398077469502    1.11806532006642   21.86568239055202
N         4.60428930329518   -0.65490122286121   20.31099408198585
N         5.92596970772242   -0.40967064200248   20.45240374077741
H         6.37976921390513    0.31416568178038   19.91425720527331
N         4.50988298724240    2.25866534262230   19.30302742741503
N         3.76617275869690    3.28176694153767   19.78712358467424
H         2.78775044620489    3.15753984480684   20.00784673981210
C         0.89361672371757    0.94082199333638   20.69393958507487
C         0.60889947366098    1.18939874272143   22.04539698386654
H        -0.36296542000572    1.27024319774336   22.48442641464644
C         1.82436555307668    1.29838791259421   22.68566428106175
C        -0.10021963041281    0.72957586311119   19.61333243400523
H        -0.52581892410253   -0.27055254827833   19.69116489023238
H         0.35588745330600    0.83124879512158   18.63017922410059
H        -0.91514591829758    1.44343724174819   19.71004060796447
C         2.16529324824454    1.53220960457024   24.10719756957667
H         2.32646859282799    0.58247414023611   24.61765675637654
H         1.34943557350205    2.04610464202217   24.60715505384440
H         3.07221418570537    2.12632383862386   24.20091921429703
C         4.33713927393234   -1.69466463023948   21.10419515408672
C         5.50997590050303   -2.10427381760834   21.75455730818955
H         5.60137468494527   -2.91291163479315   22.44855746328675
C         6.51261769825266   -1.27098201484517   21.30713287270000
C         2.99917523327940   -2.32104292590300   21.25640783270042
H         2.94989215206216   -3.22776067264635   20.65384104766591
H         2.20064326721712   -1.65677738286799   20.93446493309715
H         2.83700462774460   -2.60440379519895   22.29419813459239
C         7.96050500639580   -1.22517338799248   21.61304677720844
H         8.27693833089572   -0.21301442539644   21.86084983235213
H         8.53919317275957   -1.55991076727745   20.75229305576961
H         8.18431803776042   -1.87933225429911   22.45003423095148
C         5.69182808141267    2.79260868124327   18.98699327747003
C         5.69406921442832    4.16068758382417   19.29395482456205
H         6.50707688376668    4.84093847243738   19.15195994602832
C         4.44127344948637    4.44792530549213   19.78946970813063
C         6.83261981985871    2.05931788251184   18.37540330321844
H         7.23075044029288    2.65275610113705   17.55407661564882
H         6.52484407005999    1.09735016786873   17.97086053914252
H         7.64536827086865    1.92816732339342   19.09221628301864
C         3.83384319426484    5.71827619763620   20.24455174656778
H         3.22368794966616    5.56505660005857   21.13281992110948
H         3.19569235014132    6.12969799425655   19.46232971962793
H         4.60945725173314    6.44537660349157   20.46556290988233

