41
CSD_code = MICVEA | q = 0 | S = 0 | Stoichiometry = C13H16MnN5O6 | MND = 6
Mn        8.77654010384495   13.71089296670572    2.26328766753701
C         9.77360350047313   13.93472112564647    3.71564630825786
O        10.40954893914578   14.21448338233408    4.63811051107028
C         7.98382175116199   15.24643014589740    2.69802250686545
O         7.53303804720598   16.26447094007309    2.97466503021335
C         9.97498053140274   14.66753953893332    1.33692291008901
O        10.78187372751571   15.29874674719425    0.82963434300887
N         9.57647074782680   11.90779923278340    1.61273936274425
N         8.78024321461286   11.13476907376138    0.85786181156410
H         7.90726385215951   11.52261072743933    0.50802083760459
N         7.29908307634245   12.52774827235574    3.16158765706809
N         6.02356057137839   12.73481990924062    2.79723720616558
H         5.79589457714505   13.45340042995539    2.12262462346764
N         7.38637207841813   14.27958555088416   -0.36527608752294
O         7.46866671931141   13.43103174730528    0.59069810737490
O         6.65048884063048   13.99563683921130   -1.28145388489038
O         8.03796141975788   15.29866352510169   -0.28136415663825
C        10.70265231135904   11.22473831604960    1.79530521280464
C        10.61009567545908    9.98997298899272    1.13571415334387
H        11.35897775082598    9.22610253299588    1.09962722762788
C         9.36884928794649    9.97077668463295    0.53233382132153
C        11.85448382897776   11.73920127404185    2.57982832088546
H        11.89617027281088   12.82590827713129    2.52137441418507
H        12.78095341801304   11.32158815863487    2.19378434310475
H        11.76366732369927   11.45539425694597    3.62811976768554
C         8.69486317370398    8.94743102098321   -0.30365664770653
H         7.92842419726550    8.42690788903701    0.27161028407808
H         9.41826868128518    8.21666527574188   -0.65332262629391
H         8.21558373670895    9.41187565319533   -1.16376555912068
C         7.28633680974565   11.48588638683583    3.98734235072171
C         5.97014034156978   11.02350135540356    4.13852788035328
H         5.64740731573083   10.20088804794008    4.74229911935696
C         5.18451260417100   11.84553350682621    3.35758165416916
C         8.50709662073157   10.92682054150115    4.62415453328176
H         8.88404716208307   10.08020006214296    4.04924895999392
H         8.27600899929595   10.57848252855367    5.62798774874519
H         9.28495927610165   11.68553746848710    4.67448249843368
C         3.72259145768709   11.86911920941103    3.11102406799818
H         3.26312487312848   10.96636208415106    3.50267315354162
H         3.51367606875048   11.94084437545025    2.04468392149000
H         3.26909711461422   12.73001195008995    3.60217664601319

