45
CSD_code = MICYAB | q = 0 | S = 0 | Stoichiometry = C18H16N3O7V | MND = 7
C         2.25750135603073    4.19400604628942    3.73574236867565
C         0.78102642281366    4.56569435636992    3.39738822444300
H         0.46513650044293    5.28186850441088    4.16746164600321
H         0.75702122988607    5.04366763673161    2.41466928060050
C        -0.61582461821452    2.92328319449001    2.16875710728976
H        -0.86545104159927    3.74938489899440    1.49749136356649
H        -1.50674670145824    2.31982865878986    2.36117053653178
C         0.43021545693867    2.00413261258639    1.46632007364395
C        -0.00157797252030    2.49811963209074    4.47772213637920
H        -0.95814709145019    1.99845390041461    4.65058836324386
H         0.31344699441566    3.01485323909012    5.38809684918265
C         1.05469785941625    1.34130502162119    4.24826369602489
C         5.50726612448237    1.29012482372876    1.94522265033965
C         5.18947013475995    1.74658949628009    0.65690488422315
C         3.78644349266245    3.05847838320037   -0.58073744511362
H         2.89499142373615    3.67236072590385   -0.62263023504317
C         4.57915801814537    2.87712049465641   -1.70431759969180
H         4.29774228363288    3.35727444901699   -2.62890273604924
C         5.72335790462181    2.09099262847222   -1.64994587096905
H         6.34184675640842    1.94413921961809   -2.52189853905771
C         6.06513914925487    1.51338003624515   -0.42610117415562
C         7.23977089210743    0.74102079493207   -0.16593197869672
H         7.89671883114025    0.52759554252070   -0.99649373816832
C         7.55062902953341    0.31035752238635    1.08284203973462
H         8.45800167466559   -0.24826634728503    1.25985393500555
C         6.71379929766255    0.60275524252828    2.20352910476331
C         6.99084553459340    0.30310191581584    3.53885829210602
H         7.89003561557031   -0.23086550321854    3.80644845671177
C         6.09648642774530    0.72920638422680    4.51231508211990
H         6.29633657345426    0.53601285789455    5.55459533428870
C         4.93167697174150    1.39900660876711    4.15977487772148
H         4.22616803604340    1.73436495042974    4.91130559505551
N        -0.13082047713203    3.44604307327703    3.41555309424142
N         4.61141210701317    1.65201300530454    2.89490925322000
N         4.04954807086212    2.48485355155635    0.59433868111364
O         3.02716871391468    3.99747704543669    2.72735442524066
O         2.75720146441659    0.01536240419121    1.54011943096435
H         1.82021717016012    0.11162593358444    1.23656036408664
H         2.66990456169275   -0.49233034971666    2.35907520510919
O         2.62766784868603    4.13122315573606    4.88619886381542
O         1.46431197186626    2.59902885723228    1.05109538632329
O         0.22165746516692    0.80115794614328    1.36966124670870
O         2.08560521410177    1.72112209334339    3.62169522509672
O         0.84061460629561    0.24173032547953    4.71182827860845
V         2.98902871629795    2.33314503043477    2.15184796476373

