37
CSD_code = MICZNI | q = 0 | S = 0 | Stoichiometry = C10H18N4NiS4 | MND = 4
Ni        2.36619729810315    4.28443181131783    1.29248939767238
S         2.68003661253709    2.41752182009777    2.34677876943668
S         1.80527154998226   -0.22376136041084    1.41272526707180
S         3.51831330968414    5.49808076866439    2.67017196571869
S         3.76484632511624    8.42115352805908    2.55246015505487
N         2.16865645097694    3.19821346491332   -0.35956150671048
N         1.89871352150468    1.86829839896255   -0.16262393603660
N         1.32458142880227    5.92447884232173    0.88195795237766
N         1.92374760542577    7.10740651122558    1.22981081248793
C         2.09407924291444    1.45174252443113    1.04135116280778
C         1.28719413541241   -0.84698687961276   -0.21354254108124
C         2.93190875930761    6.98754337386900    2.02396335970603
C         2.79616946027786    9.70556681679324    1.70764081929624
C         0.10148248216233    6.00779378068726    0.48910383490133
C        -0.60718958018029    7.32121737962725    0.42584199508999
C        -0.65503986921927    4.78311107626859    0.10858307079622
C         2.41973306788211    3.54715075032101   -1.57294258116064
C         2.41461785500895    2.55097939612077   -2.68596622789027
C         2.75189597959464    4.96151365311349   -1.89912670237650
H         2.09550685029481   -0.70113624868116   -0.92182274318644
H         0.40000138388257   -0.31115050741674   -0.53310161128531
H         1.07404663509851   -1.90272616339312   -0.08422127404438
H         2.35289676495055    3.04634811544923   -3.65030458694529
H         1.58216256129929    1.86187276071272   -2.55764931392271
H         3.33017609459618    1.96014949697002   -2.65073618656873
H         1.95049365899687    5.41304352692125   -2.48426568794865
H         3.66251419468848    4.99476339340918   -2.49469136455370
H         2.90656028311572    5.54054941862646   -0.98685949668365
H         1.76962105535242    9.65936517838018    2.05456182351543
H         3.24948899636011   10.65523075080834    1.97081167230394
H         2.84367201109373    9.53935078655794    0.63692666382406
H        -1.61134007189152    4.76788426220475    0.62846973061567
H        -0.09426596377221    3.88577644140860    0.37668323710662
H        -0.85462122605833    4.77966715840075   -0.96325961226418
H        -1.50482199288797    7.24965987944493   -0.18134399460614
H         0.06286184946359    8.08071757870608    0.02721184607165
H        -0.88576871988110    7.63407851471681    1.43257583139248

