55
CSD_code = MIDBAE | q = 0 | S = 0 | Stoichiometry = C24H18CuF3N4S5 | MND = 4
C         3.48710474188687    2.95247409230792    7.26022632120182
C         3.89939082751494    3.26648402399123    9.93963091622868
H         4.15170987252062    4.29965179381799    9.70738187430946
H         2.81764092135933    3.15187957029657    9.98635810055110
C         1.12063652230719    5.41744950352815    6.84977556932281
C         1.15342778754091    5.85073678831350    8.30456395756656
C         0.27563253983953    6.07237320448119    5.98603991931934
H        -0.32241184760688    6.86525442632011    6.39442844595478
C         0.13095412232786    5.78577021159092    4.61652982894235
C         1.30296866300917    3.68645398655700    2.13257416708478
C         2.11083320355467    2.07977708702761    0.01175413803046
H         3.12562384600076    2.41657565504680    0.21868500449455
H         1.85157945126427    1.25212470864838    0.67050471659825
C        -0.80707635755584    6.55316477064976    3.83745554793204
C        -1.61848380367505    7.58004551217518    4.27754576707119
H        -1.64558171435305    7.94080346333996    5.28889802968608
C        -2.42148135035956    8.12412740781827    3.26812584928502
H        -3.11385952330482    8.93070366094120    3.42997448450569
C        -2.22413631362176    7.51479347611375    2.06461396405594
H        -2.70578762077089    7.73371593271930    1.13212765622985
C         4.57310378587787    2.78225035448570   11.17960549838056
C         5.72599046247410    3.40183964255278   11.64582008627196
H         6.13329026745081    4.24513823104555   11.10730967392169
C         6.34802261241380    2.94816468705336   12.79528688429856
H         7.24124373700464    3.43923707287666   13.15215395311725
C         5.82839020547413    1.86638247055468   13.48557486427907
H         6.31423699611877    1.51222288827167   14.38254422670305
C         4.68464587672483    1.23792695697681   13.02173583382227
H         4.27734767385618    0.39247631764572   13.55612918781332
C         4.06117728156719    1.69212016359109   11.87426808347825
H         3.16952066450472    1.20190341378748   11.51141438451190
C         1.91696464075522    1.73196784029040   -1.42760425705768
C         2.68443903557926    2.34613408462181   -2.40958587923341
H         3.43226973618038    3.07189676420799   -2.12538348191316
C         2.49622434423727    2.03125734078984   -3.74319965003135
H         3.09879801234031    2.51282974573263   -4.49891799438529
C         1.53569566680438    1.10341834320343   -4.10883469962294
H         1.38749175457046    0.85945074483581   -5.15020376116459
C         0.76310638396743    0.49188933293392   -3.13596861739992
H         0.01164753098934   -0.23090938557946   -3.41697225720992
C         0.95082470804854    0.80614105931617   -1.80228188302072
H         0.34686847237127    0.32970309824457   -1.04396198960623
N         2.68169734735697    3.90627890547860    7.52577577894681
N         1.93432373462467    4.41169247263423    6.52950317020639
N         0.85402724488820    4.81448501759620    4.04654722601367
N         0.65080344501507    4.60040943561920    2.74508272752295
F         2.36650994659256    6.27386364564554    8.68910077486259
F         0.80350617080961    4.86460041825358    9.14354038256592
F         0.31339042846467    6.86352153359182    8.55680347686525
S         3.65412221554757    2.29087115094354    5.65012742040631
S         4.46160650712555    2.25273176670849    8.50150677074798
S         2.47066630913871    2.68309073553357    2.96079362090394
S         0.98383668981708    3.47720157667526    0.44318404584932
S        -1.05475452595558    6.26728975213349    2.13820510651016
Cu        2.12748066938852    3.68616314605602    4.85400703427705

