103
CSD_code = MIDCIM | q = 1 | S = 0 | Stoichiometry = C50H48N2P2Rh(1+) | MND = 4
Rh        0.28655957873866    7.72275813912767    5.56176372014078
P         1.86335890968718    6.97242147335630    4.16117294496300
P        -1.14858023397894    7.84814099177432    3.84877974660213
N        -1.16303119592131    8.28151662153516    7.07107449219050
H        -1.82197615804327    8.99724939790771    6.76142962378292
H        -1.72542969371454    7.46635851973379    7.31853722009242
N         1.58156053486702    7.80737789504305    7.29557391619006
H         2.25686294296784    7.04289645277588    7.34054955164673
H         2.12942323895709    8.66828035834550    7.26952189161014
C        -0.44004216961815    8.77470127250111    8.26169748983385
C         0.74254009595928    7.78129495521207    8.51162759917002
C         0.05760289336875   10.18021640763761    7.89849530509686
H        -0.79179840373241   10.85708470395221    7.83234916476183
H         0.55505018600946   10.17202141369469    6.92606087511001
H         0.73640619326754   10.57751698391363    8.64609046894050
C        -1.39123945379746    8.88074043794557    9.45612584330589
H        -2.24793493270979    9.49643403721377    9.18747547152077
H        -0.89844147249747    9.34930903354961   10.30236353822856
H        -1.76283974162970    7.90857582061689    9.76878845542397
C         1.57692369005070    8.14566306613360    9.74197453150334
H         2.44405018961996    7.49018133443036    9.80242177196417
H         0.99984228847785    8.01690395950098   10.65242959816671
H         1.93472143186300    9.17102724068902    9.70284829075212
C         0.25519281411960    6.33315804504485    8.65517454204090
H         1.09447420036615    5.69590847810376    8.92629557519440
H        -0.14955760445523    5.96873320596352    7.70822935529604
H        -0.49746091237998    6.23193502312443    9.43028827050598
C         3.18945546517345    6.07230739828665    5.03972820547029
C         2.76310322387088    5.13871890943588    5.98750839127559
H         1.69795642590490    4.96960666111404    6.11084548600062
C         3.67770067191855    4.43629235757327    6.74879636830383
H         3.33849876351076    3.70550320610235    7.46852731311305
C         5.03430251639007    4.67501354790840    6.58616956706376
H         5.75291187154588    4.13024373283012    7.17879013764388
C         5.46363956933506    5.61834884886059    5.66816489279626
H         6.51893646639611    5.81136997056929    5.54850654427699
C         4.54861393184403    6.31935755432132    4.89871949301972
H         4.89616674489621    7.05856335591664    4.19247867231231
C         2.75006286469038    8.20150849850423    3.16228479385110
C         2.50082804772244    9.54438400327829    3.41772082338958
H         1.78772747298345    9.80054962779918    4.19770644969085
C         3.13161356551583   10.52315666709664    2.67393354375696
H         2.92882594651579   11.56653440502756    2.86378521412197
C         4.02638998768307   10.16028865628711    1.67996777779685
H         4.52067554751499   10.92161816903059    1.09626915536160
C         4.28822174409476    8.82259937362465    1.43013501856454
H         4.98624342826249    8.54539626135574    0.65474514606743
C         3.64788822900502    7.84072406039269    2.16298191348519
H         3.83073391828872    6.79454360276092    1.95782468201399
C         1.27326006817323    5.76736613048554    2.92169109990782
C         1.43693450754857    4.38443416407439    3.13879856741932
H         2.04938698640146    4.04633073870260    3.96064046787249
C         0.84787274583187    3.46954568257428    2.31681137622047
H         0.98000712774199    2.41211485139087    2.49331701704619
C         0.05919456307090    3.88258801678397    1.22489147380911
C        -0.57981152218663    2.95286011188007    0.37957567837519
H        -0.46456600114334    1.89989339453271    0.59096912752530
C        -1.32531258624197    3.37375562115700   -0.68481138886621
H        -1.81070522829303    2.65755078966423   -1.33020831954237
C        -1.46161994957454    4.74509342840554   -0.94765891189709
H        -2.04989658408516    5.06632944049570   -1.79405463454502
C        -0.86008559509212    5.67092629673376   -0.14256027671520
H        -0.97554252184293    6.72352795521134   -0.35199759592337
C        -0.08300950185088    5.27032665926098    0.96684713359427
C         0.52609154979868    6.20904015115461    1.84389853792999
C         0.38573231986772    7.65029831553474    1.53771933571427
C        -0.43795463990935    8.47233943740899    2.28646121808159
C        -0.59434638654702    9.82473787078968    1.92187527340409
H        -1.26412641515493   10.45226456110621    2.48980905694901
C         0.07471960916593   10.34618362708858    0.85407553873221
H        -0.05255914148301   11.38429293750765    0.58408165765384
C         0.94150001459531    9.54546547206594    0.08434342345875
C         1.66374143601183   10.07240218239478   -1.00564468713581
H         1.55030074702230   11.12051917059633   -1.24076796844583
C         2.48643260397703    9.27511676812833   -1.74951872025617
H         3.03600188830021    9.68336167135755   -2.58402978667981
C         2.61931521944837    7.91472406631098   -1.43331012462753
H         3.26917412968730    7.29302319927704   -2.03065770125501
C         1.93744930481392    7.37583164679256   -0.37890914866696
H         2.05069230914416    6.32878142688134   -0.14221139053642
C         1.07988968103674    8.17211793340690    0.41210016667954
C        -1.97825456375251    6.31339030691738    3.34812243571668
C        -2.78671129923846    6.23707707979587    2.21884130151291
H        -2.93247035817333    7.11408253328938    1.60272599503702
C        -3.38527270751512    5.03649534270110    1.88478893388061
H        -4.01424997936269    4.97466576830951    1.00965597214546
C        -3.16930011096418    3.91029245028746    2.66285400271392
H        -3.63002859038862    2.97337849781054    2.38980787716957
C        -2.36271987707177    3.98230295900636    3.78736528733242
H        -2.19468090436704    3.10176018580371    4.38920185376210
C        -1.77485021443031    5.18420179585417    4.13197205163111
H        -1.12973071850971    5.26711377050706    5.00360618795651
C        -2.51881599704942    9.00851754272617    4.18946782249250
C        -3.86802271451611    8.71705066430762    4.03886753635201
H        -4.17692630987517    7.75732233180227    3.65218107227895
C        -4.82308763024937    9.65847531308049    4.38883851952308
H        -5.87000060781671    9.42720020914377    4.26341155307360
C        -4.44418782710404   10.88964562793497    4.89635325031792
H        -5.19340461321124   11.61932269242804    5.16212736135716
C        -3.09936898312817   11.18163144829908    5.07016894229467
H        -2.80014874109292   12.13894370550971    5.47154454666451
C        -2.14555223013620   10.24210123756623    4.72849963990382
H        -1.08960937918263   10.45235068090666    4.86760351818802

