32
CSD_code = MIDCOT | q = 1 | S = 0 | Stoichiometry = C12H14N3OPtS(1+) | MND = 4
Pt        8.42203603663764    2.23271619309206    5.18631767055940
N         7.57319392534514    0.36663837078051    4.70965381194671
H         6.55818421289932    0.35385464953368    4.82042589799106
H         7.77026693911184    0.28962112514063    3.70644371146924
N         9.24578475922277    4.04044091671214    5.43761687376729
N         6.94020888296404    3.58669886369941    4.08696465643190
O        11.07974290163989    1.50525146378002    6.65856078247486
S         9.70205007972429    1.00787830819406    6.68282674698373
C         9.64874359439044   -0.51192152907915    5.60453934832292
H        10.17480185016972   -0.31708293589421    4.66970918455925
H        10.15451031942058   -1.31536623823408    6.13757910697147
C         8.17366156981143   -0.79058813197674    5.40495487793018
H         7.69547685542633   -0.89470638281086    6.38334370980367
H         8.01149573727856   -1.71632306323791    4.84153027978862
C        10.49102897287568    4.22558493856602    5.86404528031114
H        11.04476623004931    3.34223337447659    6.17603744293626
C        11.08225204209654    5.47698807209858    5.92927258134686
H        12.09401253537532    5.57344301866618    6.28647006330121
C        10.35003013755883    6.58110679096739    5.52591760611194
H        10.77514772774759    7.57180221063519    5.55768319827267
C         9.05764863254228    6.38771785322825    5.06652519954028
H         8.47972616579715    7.22634952319666    4.71549597008183
C         8.51970543126567    5.10454688190071    5.03155161865688
C         7.17076870378278    4.84339498252277    4.50013226941618
C         6.18910643812059    5.82708049556329    4.40328853151697
H         6.37006352719216    6.82229887713523    4.77351215069079
C         4.96115575838062    5.50520241614685    3.84987449684364
H         4.18677950811187    6.25176749967923    3.76980385967228
C         4.74663389247655    4.21156696041532    3.39963840786103
H         3.81129467873027    3.92411824180247    2.94857725325344
C         5.76645882624214    3.28624408658154    3.54830957071249
H         5.63806312761127    2.26894216671913    3.20359784047319

