56
CSD_code = MIDDEK | q = 0 | S = 0 | Stoichiometry = C19HAgBF27N6O | MND = 4
Ag       10.39214651231825    5.42054138858969    6.32904669138673
N         8.69231174463100    5.71546517784461    9.08025325575378
N         8.88934880835748    6.36869657865397    7.94962989677059
N         9.92070435590605    3.56471352726277    8.92498573427527
N         9.68088545314155    3.53863415567624    7.62702982796301
N        11.13980452866229    5.65388124769235    9.47560664178817
N        11.74957354489070    5.58367339411996    8.30698959807886
C        10.43286273890047    5.69651556130217    4.28693419940728
O         9.71750749319959    5.75564447422345    3.42196652470153
F         8.85994383668586    7.72448505668537    5.70961425013087
F         7.55895796979268    9.15182789579834    6.65786478028532
F         6.73100857830054    7.47416573462311    5.58956250684147
F         5.18035148501774    8.22778812798410    7.75878744193826
F         5.13711026935212    7.87857202816302    9.87662281392075
F         4.49630906940046    6.33653172332349    8.51240280122755
F         7.48990643187093    5.61733792871360   11.86926635198862
F         5.59544995348084    5.39353921723567   10.88465858607873
F         7.11488196921659    3.89590280387006   10.62944137287245
F        10.61775108818562    1.38714627768777    5.19295777756235
F         9.32026306849531    3.09580466803215    5.07715422635930
F         8.51004910441209    1.16813404619269    5.57928728885847
F        10.05783706256288   -0.56435022759186    7.10091042215943
F         9.64593437942306   -0.65535547332098    9.20625315987515
F        11.65950256476988   -0.32136453140459    8.51102409863286
F        11.08537843241565    0.84503643868301   10.97176380767801
F        11.61597924061279    2.92118894924506   11.13389279964755
F         9.63097701377056    2.26735027180527   11.65838854401573
F        13.94624412591705    7.66448182535596    6.78724325142774
F        13.18429210348499    5.76514275988700    6.13181235612888
F        14.94210536175258    5.84533647318590    7.36998820159224
F        13.61943865800094    9.02419849934519   10.37201299832479
F        15.07903855799836    7.85665906811710    9.31324689365859
F        14.55641107943648    7.33457031112926   11.32903566846761
F        12.03338132429680    7.73388286533565   12.27236096810862
F        10.05620389103382    7.24575246236488   11.58513786317972
F        11.28586408218916    5.73459299715911   12.50595928099854
C         7.77480343031459    7.02097313533369    7.65280017929010
C         6.80046087256098    6.77763161145019    8.63435668974485
C         7.44155204098500    5.92422800507631    9.52754289722718
C         7.70778057965953    7.85545418544374    6.41094626526070
C         5.39800279675045    7.30641615254163    8.69951163298620
C         6.90275621224433    5.21993246874435   10.74173092875592
C         9.79723839446135    2.28511273945900    7.21264258496836
C        10.13633657969616    1.45310638837934    8.29159573035466
C        10.21039961613271    2.32954355057764    9.37040990183141
C         9.56244988302405    1.95649535417245    5.77039849966056
C        10.37508864872782   -0.02788567656453    8.28093835209205
C        10.62573461991800    2.07621510852891   10.79271812637965
C        12.85685886714378    6.30758724837045    8.37639300228011
C        12.97325339200274    6.88365224484737    9.65211160395654
C        11.83644961928855    6.43656449265352   10.31900056148362
C        13.75173599819223    6.40609425847438    7.17809233483255
C        14.06050913206130    7.77713699236203   10.17129743708684
C        11.31721013816133    6.78406574630779   11.68582970122499
B         9.82506988763450    4.88405815761768    9.72341073601194
H         9.63559340916309    4.69319413347489   10.86287995248609

