68
CSD_code = MIDLUH | q = 1 | S = 0 | Stoichiometry = C24H38ClN4Ru(1+) | MND = 9
Ru        3.33552736432278    2.59909712654769    1.99340982186804
Cl        4.83837534981501    2.39898472784017    0.21803159685449
N         4.69203408119231    3.83102664840969    2.94896399620154
N         2.68049011511769    4.38544953573588    1.18697732925498
N         5.56730884637200    5.15280350727514    4.46973887624473
N         1.50180754484045    6.22002918021175    0.91824444573537
C         6.45538169093540    5.07943171847520    3.44217300643842
H         7.39180058291008    5.59652143628732    3.45389974918481
C         1.69072612129036    5.12142234495313    1.66544602333312
H         1.10433117172937    4.89375277054456    2.53553690141646
C         5.90714288635933    4.25860431794163    2.50133111547587
H         6.29434798811182    3.94513102406664    1.55033069059862
C         4.51407607419845    4.39186157928176    4.13397687364219
H         3.65113326674871    4.26908908161505    4.76116532567357
C         2.50495623069539    1.63931412905693    3.90759139522655
H         2.53643114511496    1.91858207526070    4.95594368903128
C         3.52794205611970    0.79127372339078    3.38931358829180
C         2.42712711585492    6.18682398134862   -0.07875346653324
H         2.49429532953431    6.95080310417904   -0.82470354470908
C         3.39554348434359    0.33717987705878    2.06873432246359
H         4.12079599755904   -0.35583843675983    1.65876853430632
C         3.15500305267786    5.04645754455297    0.09319897107706
H         3.96765949736279    4.65387564820415   -0.48822818547975
C         1.13898139324441    8.33573757148328    2.11117812544298
H         2.06470254199686    8.72708898721309    1.68407464294918
H         1.38241463592279    7.86788824162062    3.06839180002873
C         5.68999571795652    5.96998671225624    5.65178410541192
H         6.74500504201694    6.21752267685372    5.78280913595666
H         5.35602453261775    5.39232090507592    6.51775267460531
C         4.36955309113684   -1.10593680516868    4.74870273191216
H         3.42335478010960   -1.15662137187150    5.28358218366070
H         5.16042404806151   -1.44062449448691    5.41422625003598
H         4.32346040621238   -1.78501217442945    3.90064523231477
C         0.06534321677902    1.87750080131668    0.97258829053249
H         0.30271329563116    1.94352693467591   -0.08723988480741
H        -0.39574517395417    2.81050396477818    1.29056713327456
H        -0.66563718942558    1.07796875823650    1.10427662401603
C         6.00988033612497    0.41004062893715    3.57194943389997
H         6.12373776372757    1.37359961177243    3.07422487678341
H         6.11427517947989   -0.37417895168097    2.82730495241277
H         6.81320201535852    0.29376056106325    4.29438820191945
C         0.15509444303668    9.48253213133538    2.33583951195339
H        -0.07548939043395    9.95104690384918    1.37768552462890
H        -0.77653985976138    9.08635812407581    2.74472448301607
C         1.40613444337544    2.01145461603147    3.12628336621500
H         0.59177499897173    2.57189409332912    3.57217434792409
C         0.55580617389300    7.27898817626094    1.16843302225536
H        -0.34894078572616    6.84883892805807    1.60536324821143
H         0.29427927593359    7.73936473445232    0.21331988114203
C         1.28936169590157    1.56420119360049    1.77886142622662
C         4.86387452000484    7.25467814003115    5.53178544805919
H         3.81036869510035    6.99658330951217    5.40144858966654
H         4.95869050077394    7.80553906716420    6.46821927178108
C         4.65540125295364    0.32500864113126    4.27944808657383
H         4.68519588436787    0.97741067424438    5.16112486160897
C         2.29024333762899    0.72304360185821    1.26661389530609
H         2.18663910928834    0.30885569587988    0.26921251489125
C         5.31912226465433    8.14155220270881    4.37412000716352
H         5.19845141555646    7.60649157808955    3.42843562888844
H         6.37855341435433    8.37533217624291    4.49359746314030
C         0.72059038008594   10.53012641882376    3.28639227246140
H         0.01077416552301   11.34186640140815    3.41580113894460
H         1.64612942084487   10.94517159015357    2.89471992278481
H         0.92213643657808   10.09655327279334    4.26349884098154
C         4.52265968104459    9.43935001343835    4.32493422544235
H         4.85200294552670   10.05434010727960    3.49211182334817
H         4.65947668057431   10.00658064412640    5.24197013271802
H         3.46148627372945    9.23548836099368    4.20388349870335

