33
CSD_code = MIDLUI | q = 0 | S = 0 | Stoichiometry = C14H13MoNS2Se2 | MND = 12
Mo        1.89736418327034    4.97913221527859    8.12185455748872
C         0.78804511626181    7.05099327432918    8.22369300209744
H         0.20017281907201    7.43020413103439    9.04820558896759
C         2.18950305300943    7.23819981956763    8.05310591205791
H         2.81627038792662    7.87530386726968    8.67010037056066
C         2.53366049359037    6.75117821266543    6.75826550597433
H         3.49190164494967    6.87917583919902    6.27519489142980
C         1.36672984006953    6.24739454449856    6.16663716618679
H         1.27406892488376    5.90935100715155    5.14418795729766
C         0.29126625543280    6.43135023673815    7.07127852770636
H        -0.75185559260836    6.24828645775237    6.85678373345465
C         1.38251091286546    3.29238593400144    6.48788001311746
H         1.40416082841578    3.36165243746598    5.40982259566731
C         0.23697372625088    3.46569106150654    7.30448474744725
H        -0.76023356993597    3.68230915573297    6.94805686639662
C         0.57930634707457    3.13153997308193    8.62261260028528
H        -0.10384042781421    3.03030605772476    9.45430326294471
C         1.95607183609118    2.75862894026073    8.63290464976146
H         2.46186609378311    2.24715438662651    9.44655366953311
C         2.43340125053597    2.84212299752569    7.29460923764383
H         3.40325917695846    2.50868274420497    6.95299515346981
Se        4.43567554343357    4.93922234859428    8.53709091042822
Se        1.72476521117156    5.27817434017181   10.65680543831880
C         4.57508262124057    5.14520300060107   10.40082992900829
C         3.52382201872019    5.27780968059056   11.24246651279083
N         3.86967596139492    5.41335440352352   12.56432044612443
C         2.88025818295616    5.56520598677371   13.59724604569717
H         3.39306002019311    5.63896077473978   14.55500038309411
H         2.20992002762032    4.70226171406690   13.59376650212541
H         2.29235275101084    6.46799098906428   13.41461798432694
C         5.20083279624991    5.39246495340664   12.80943778206943
S         6.07974209801191    5.18983978647789   11.29108326374796
S         5.90740946792304    5.53126872836827   14.28100479277973

