40
CSD_code = MIDMOC | q = 1 | S = 0 | Stoichiometry = C14H22ClN2Ru(1+) | MND = 9
Ru        6.92580680634059    0.72753374046528    9.97285937008482
Cl        4.79262607439905    1.54702223398846    9.51189401489870
N         7.35534318089154    2.58350741949404   10.95809584547915
H         7.51993991194557    3.29801414521964   10.24455795452340
C         8.57542436990248    2.45204712124549   11.77310139151607
H         8.95104004108011    3.44414650282709   12.05227821561545
H         9.34409118714621    1.96129678274450   11.17073694273681
C         8.32176427819105    1.66654252518827   13.06240528871043
H         9.28540957809793    1.41437462350065   13.50569998626256
H         7.80524893589961    2.30452884942411   13.77866802756355
C         7.52793514700533    0.37171132223884   12.86975767408322
H         8.15643543587536   -0.39612762234259   12.41127035767370
H         7.22717804017504    0.01132061225947   13.86113587395539
C         6.20414564504797    3.01099701796394   11.77619914040659
H         5.46810269542447    3.46588221408900   11.11025789263488
H         6.51910262647671    3.75312892462377   12.51632976375835
C         5.57597408007464    1.76464515223454   12.43880794790744
H         5.56300951440648    1.84357123636017   13.53022763977253
H         4.55115017531948    1.65186348837597   12.07912912429118
N         6.33858775671811    0.57109272586209   12.02203142858375
H         5.72895212886279   -0.24429331759054   12.12585698876106
C         6.68050148083021   -0.34292014836261    7.93970802395628
C         5.47929508878647   -0.61719193963415    7.09348746188365
H         5.81306805287579   -1.05852054785600    6.14953029326984
H         4.90988117027086    0.28261164160685    6.86288930810586
C         4.67102661584513   -1.62319645843357    7.92945353969059
H         3.98059890984378   -1.07502853547628    8.57209758166782
H         4.09730551445099   -2.30781744271333    7.31067940743831
C         5.70949892934710   -2.35007434357491    8.79945418633292
H         5.29864282922874   -2.68747388026499    9.75094473976196
H         6.11346286234783   -3.22420923203745    8.27883032474358
C         6.80351034572454   -1.33200249000334    8.94525144330999
C         7.93355810703813   -1.35118487443464    9.78754391380073
H         8.07991229471222   -2.17434181709554   10.48007987845136
C         8.93686148931746   -0.37517060831230    9.62377701038650
H         9.85968430284125   -0.44696532473933   10.18604162946153
C         8.76995772116065    0.65012196754111    8.66669517497685
H         9.57014256855304    1.36725526603025    8.50789791335967
C         7.64530048008974    0.67054845396099    7.80648947665192
H         7.57942362745579    1.39355461562691    7.00124782353168

