36
CSD_code = MIDNET | q = 1 | S = 0 | Stoichiometry = C12H20ClN2Ru(1+) | MND = 9
Ru        1.04753738558636    2.74183636237383    1.30886382153836
Cl       -0.71234274740682    1.64598766910263    0.24429064347937
C         1.85556645131238    3.47287110006127   -0.72477968510905
C         1.07826427407624    4.49552523816417   -0.10566614340781
H         0.28208518524689    4.96408674856170   -0.67450952522114
C         1.38959752834845    4.96679532033830    1.17789941676541
H         0.84421477535104    5.80992881061883    1.59030046318494
C         2.49293983482213    4.42300564442519    1.88748219964630
H         2.79466087914402    4.84621310980100    2.83742653351831
C         3.22768783773724    3.38462821176729    1.30741752481648
H         4.10643914064110    2.99814069750258    1.81399457408838
C         2.92065773847532    2.89500237773847   -0.00053404287374
C         3.80809271656114    1.85516221517744   -0.62829782707839
H         4.14019031424859    1.13509260127189    0.12430490333205
H         4.70315173062047    2.36230598710433   -1.00512299746280
C         3.10682481014879    1.14899745391754   -1.78516114233496
H         3.80044304732121    0.46514851115265   -2.27283259103618
H         2.26111471922900    0.56807938681363   -1.40705869507629
C         2.60192889694289    2.19439800776927   -2.77206624610642
H         2.19990011090061    1.71454348330118   -3.66348996881306
H         3.43159629416562    2.83327416438532   -3.08088350993398
C         1.50969808274027    3.03719955174138   -2.11844176945472
H         1.29049941436274    3.91881821772377   -2.72518101133576
H         0.58459074056872    2.45169713972487   -2.06587721607517
N        -0.34024935787498    2.79661071008840    2.95588645342904
H        -0.42162334983079    3.69943499763682    3.42680849277759
H        -1.25388286977037    2.58298065383457    2.53349692794929
C        -0.00956159281582    1.74236741045691    3.92670789330037
H        -0.82808219034541    1.57037183812279    4.63356950899537
H         0.88180959990422    2.04690122202274    4.48515179059237
C         0.27855431504914    0.47295147340872    3.12825399417831
H         0.56326253839703   -0.34941969535834    3.79136216107096
H        -0.61721187598666    0.19151346275786    2.56462098657378
N         1.34501496371616    0.78169662796516    2.15683438010605
H         1.31503365206705    0.08847430958928    1.40413683078916
H         2.25779700634642    0.70887897893653    2.61349287118726

