70
CSD_code = MIDNIW | q = 1 | S = 0 | Stoichiometry = C33H29NO5PPd(1+) | MND = 4
Pd        7.15586079344669    2.09220237532013   16.97332425025808
P         5.77113134598021    0.64562055858809   16.02490248480934
O         8.28373246455405    3.83955272977017   17.66653534676856
O         5.67969978724342    5.53758474361561   20.56474202981154
O         5.16575303528302    3.39212965369361   20.98731009402751
O         4.27952915439109    1.18782176127164   18.03972923014869
O         3.59823739514291    3.21178472116723   18.72357332225742
N         8.55012002393227    1.19518553691326   15.70836464487916
C         8.38652539379768    5.42891652266453   19.42580641651530
H         9.31580351063977    5.72578614799111   18.94657605046331
H         8.58321920830385    5.10359657206380   20.44634653369140
H         7.70426764420162    6.27551425631373   19.49421788543737
C         7.73929064649943    4.32829694110526   18.66257923866123
C         6.42420260842096    3.82120673506192   19.07409515565189
C         5.88388827080311    2.89230066796507   18.24397697356862
C         5.72067522356220    4.37160213317777   20.27350285425814
C         4.41758811848080    3.79764463736182   22.13043104848392
H         4.11894341677640    2.88434184966459   22.63758672518239
H         3.54271969793769    4.37104322976648   21.81988244167596
H         5.03204328735180    4.41900477232207   22.78423072073171
C         4.52469065354129    2.34334581469366   18.35796896168706
C         2.25360837118285    2.74317788002066   18.74483878455749
H         1.63113786984131    3.61915109508109   18.90672261634437
H         2.12041888181875    2.02199603765995   19.55298137938180
H         2.00906389194643    2.26308878141508   17.79515698912781
C         8.05594605433653    0.78245237645548   14.46722773196107
C         8.81147613641481    0.70255021102841   13.29907041853715
H         9.84988716559870    0.99754361379179   13.29506343449922
C         8.21378284386901    0.28671731987075   12.12295165351066
H         8.79932327627835    0.23701000500081   11.21823677140827
C         6.86900098093279   -0.04856880579649   12.09626961574124
H         6.40926254860620   -0.35857215733028   11.17089336148647
C         6.10885236576692    0.03519112560148   13.25175942856832
H         5.05206523954908   -0.18938745827154   13.22196599088039
C         6.69253644313425    0.44258007124316   14.44168052981766
C         9.78212430166953    1.17544712690967   16.05736889768583
H        10.58123312559386    0.88855747258607   15.37322339166810
C        10.13993642258022    1.54639889148192   17.41872557085712
C         9.29944898634768    1.17602257085579   18.48571679850335
H         8.49370997206090    0.44673553407825   18.32143220634801
C         9.59442822709536    1.59989159219676   19.77125400003373
H         8.95966347061094    1.30228212492123   20.59340955149824
C        10.71054453369082    2.39060725112862   20.00586504843291
H        10.92987054108660    2.72809654851962   21.00724828252508
C        11.56106158936220    2.72370804704289   18.96296977450199
H        12.44029964266780    3.31936139215840   19.15350104476926
C        11.28783981821550    2.29595983935017   17.67701518230577
H        11.94041520791679    2.57119968309669   16.86211972736025
C         5.58207712456624   -1.03663584873361   16.65192808293040
C         5.96320746735748   -1.27224697985390   17.96935799273268
H         6.29834531816904   -0.43461425309346   18.57462691053777
C         5.87479891777295   -2.54770275341275   18.49447999315839
H         6.16483691869408   -2.73413556450716   19.51736146998255
C         5.40832828605930   -3.58806362177716   17.70540396505098
H         5.33454998994520   -4.58338567308755   18.11577929455765
C         5.03751536021294   -3.35529960213122   16.39053601021529
H         4.67754821614527   -4.16879724357761   15.77915106216066
C         5.12893497017713   -2.08236340880820   15.85509706860176
H         4.85383733281231   -1.90601228304738   14.82563953933093
C         4.25026194561557    1.38313772647206   15.38050068919916
C         4.37306943561754    2.72689501186825   15.02906216959035
H         5.33817999077001    3.23077302942151   15.16740463083591
C         3.27843505993521    3.40595731001038   14.52972349268021
H         3.36215940586805    4.44683262806261   14.25671055823013
C         2.06538874777417    2.74548647916504   14.38743165226311
H         1.20870313503137    3.27661820331829   14.00200653175428
C         1.94549745436759    1.41271876014532   14.74652958124972
H         0.99623596802580    0.90927011370689   14.64214093942226
C         3.03795009440137    0.72285658804768   15.24835230469011
H         2.94787927216433   -0.30836914873192   15.55662546946513

