46
CSD_code = MIDNAP | q = 1 | S = 0 | Stoichiometry = C20H22ClN2Ru(1+) | MND = 9
H        11.98948907296236    4.86892804732037    3.57306554627943
H        11.48082088878393    2.49223960774854    3.13593420333801
H        10.16955860165902    1.18700237427722    4.76210780350159
H         9.36089313679237    2.24318246150404    6.83639107392534
H        11.56637519630778    9.21860936339801    9.31550189464692
H        10.55935129955738    7.48337972742003   10.80329872058150
H        11.37853820882617    5.13298211812419   10.69739809849173
H        14.03068594391701    6.29453658074844    2.72593923513261
H        13.11919641360549    8.54472714715156    2.77651482546990
H        10.46317239568241    6.86373819620273    5.45101801488570
H        12.09383673441353    6.58276175457165    5.32932622503025
H        14.69702387625655    5.14925462096143    7.24151392408564
H        15.48673551931517    6.59572090917534    7.88117479674288
H        14.36240525072789    5.17401203382759    4.89762994128793
H        15.76697178319098    6.20151856252674    4.68267527787083
H        12.61229023959823    9.48423973725506    4.99343068816351
H        14.32522037536073    9.76203391231293    4.74430123495112
H        12.98564944384139    9.73448351789369    7.33621288053505
H        14.54739999204698    9.14410681517536    7.91797341545566
H         9.64739139584045    4.17176164432888    8.32198614120083
H         8.89769481850285    5.31918185609622    7.39048418609499
H        13.25691792327211    4.52180393946293    9.17027269655553
C        10.96084223172520    4.89032447398052    5.44757035903638
C        11.41440562558416    4.29390938657373    4.28277359750660
C        11.12591046878469    2.95888610089660    4.04064176140963
C        10.38887853237241    2.22484701331968    4.95385084625711
C         9.93106988475322    2.81711913759416    6.12142876304581
C        10.21670465654062    4.14947628639089    6.36718862567137
C        12.92816829503377    7.84400403589252    8.35588127112357
C        11.89509999905114    8.18766935094746    9.24162955612287
C        11.31543321390559    7.20234306633460   10.07977943361892
C        11.77766226284787    5.87608910755644   10.01408914658035
C        12.84576551992386    5.52386076721332    9.14677916124423
C        13.42046377104210    6.49981032200991    8.32180641156085
C        14.57297697460852    6.22096107240755    7.40304419810386
C        14.35862584139263    6.94887059260311    6.09702333954499
C        14.67965308083921    6.22047239173458    4.82594840645679
C        14.04332783387969    6.87631299383888    3.63606242383341
C        13.55283668812379    8.10408525986490    3.66160809092940
C        13.57511326155231    8.97416184725724    4.88111497641123
C        13.88284027358747    8.19238494938991    6.12143529021544
C        13.59976522897056    8.84114295567431    7.45511708568618
Ru       11.13687723573583    6.49568189603637    7.93223904253570
Cl        9.23196860857425    7.72197880512550    7.34145737427423
N        11.23348581270077    6.26179053457887    5.78937942216200
N         9.79880618797608    4.83941272530384    7.56170059243296

