58
CSD_code = MIDPUL | q = 0 | S = 0 | Stoichiometry = C21H33ClO2Ru | MND = 9
Ru       -1.33107360103996   -0.78332463636194   -9.90201844350909
Cl       -2.78574482528328   -0.39337452471363   -8.11671709022509
C        -1.08777309420529   -3.02694042118196  -10.30485580425491
C        -2.13512736775030   -4.09269093643122  -10.52650227590388
C        -1.57623369304461   -5.47508620009178  -10.17660176224328
C        -3.39642798026991   -3.78247582065102   -9.71670000640612
C        -0.60806712698960   -2.72154299843563   -9.01432654838074
C         0.43688896142043   -1.78126692547993   -8.81794332451291
C         0.96009895348806   -1.06550246358859   -9.90602487522916
C         2.04794623999072   -0.05124029749715   -9.72121533492847
C         0.45769250633969   -1.33731919641669  -11.20944389152268
C        -0.54177583519947   -2.30301755871814  -11.39667128499686
O        -3.01311538904157   -0.46319230786643  -11.04994150322557
C        -3.63841788565778    0.62765844343115  -11.11953951923634
C        -5.00615016084465    0.56578915362697  -11.82319035888757
C        -5.25753218104030   -0.85594943131364  -12.32995329950323
C        -6.07779985983299    0.92642459726008  -10.78818922090403
C        -5.04436522641905    1.53606867952329  -13.00709197909920
C        -3.20569030176120    1.86432304196173  -10.63297061781150
C        -1.95589603501448    2.11280164791141  -10.06024985888414
C        -1.61441780766171    3.55999933846802   -9.66333169498208
C        -1.79958280525107    4.51419913625462  -10.84610813048553
C        -2.54584282185773    3.93928724406373   -8.50615850076153
C        -0.16290594239741    3.63092639292445   -9.18388963089764
O        -1.05930756324490    1.25849977106325   -9.83037378544603
H        -2.40227869649765   -4.08719671224227  -11.58967252152465
H        -2.32214021735230   -6.23889981591621  -10.38205928612733
H        -0.68754865517125   -5.69193143537667  -10.76659818511912
H        -1.31224448299083   -5.52919786689285   -9.12300005902586
H        -4.21224673755970   -4.43204657883795  -10.02494917797529
H        -3.69008193907156   -2.74452203352383   -9.87330603625603
H        -3.22510560843165   -3.92602426696634   -8.65305709094021
H        -0.97887580814708   -3.27354043265273   -8.15754783462624
H         0.84633891074151   -1.63563351585517   -7.82441577569129
H         1.62674218932350    0.95089749968382   -9.81160886623724
H         2.81611835986661   -0.16700278431327  -10.48464629974772
H         2.50296803445663   -0.14067712823144   -8.73757353437852
H         0.90033670728553   -0.84021239974151  -12.06450361818713
H        -0.87060694907970   -2.54071550933113  -12.40354546144928
H        -6.22106067093528   -0.90704829521544  -12.83179826117176
H        -4.48138768025873   -1.15467144657118  -13.03040713006934
H        -5.25705139360076   -1.55695018563105  -11.49975426538200
H        -7.06750724896745    0.76467965499482  -11.21031830276445
H        -5.99881373569225    1.96562411618852  -10.48254751181745
H        -5.96664434290357    0.30327553798025   -9.90411843282113
H        -6.00609323926623    1.46044093817559  -13.51036100217421
H        -4.26123406027069    1.29310094943972  -13.72182660231334
H        -4.90769475442443    2.56464752437317  -12.68653541767975
H        -3.87406463612612    2.69939677695392  -10.74184061932595
H        -1.48313646289378    5.51498840841878  -10.55934030050462
H        -1.19800373615894    4.19205316822392  -11.69327730508140
H        -2.83708453272010    4.56530343844714  -11.16253997268749
H        -2.27682606215770    4.92038890930279   -8.12003778780974
H        -3.58263297361968    3.96543333513783   -8.82894573150554
H        -2.45977684195101    3.20951582090880   -7.70472552141705
H         0.06831242627175    4.63733389926834   -8.84268166682776
H         0.51817501526984    3.37360768966796   -9.99244877288729
H        -0.00482933439851    2.93652901240141   -8.36270290622558

