107
CSD_code = MIDPAQ | q = 1 | S = 0 | Stoichiometry = C59H45NPPd(1+) | MND = 5
Pd        3.12894049756384    1.15592108216812    5.11834021099311
P         5.36867490801288    1.28132723729674    4.93333994072506
N         3.84722547818919    0.93771028685243    7.28951018299165
C         1.60153621894505    4.67719693963655    1.46112062049551
C         1.35541753011473    4.33631939636152    2.86845102135889
C         1.64075723414679    3.11407940712040    3.38014121682661
C         2.01899160886168    1.94140318121755    2.57532704146450
C         2.76985672476012    0.99530580811996    3.14554901236594
C         0.65095489305822    5.39365002676416    0.73650965531206
H        -0.27803996979100    5.67466052887257    1.21109417872735
C         0.88150595191500    5.72296553210791   -0.58514465096347
H         0.13230367429578    6.26635897550548   -1.14068810131130
C         2.07108725864905    5.36161292406469   -1.19605198744874
H         2.25115763886270    5.62317657112211   -2.22754591174723
C         3.03089068844567    4.66927140121813   -0.47693489730296
H         3.96482262245905    4.39422496630398   -0.94454652359855
C         2.79820386556205    4.32479484076954    0.84027713425753
H         3.55151180954446    3.79060500124149    1.40062272249812
C         4.81677844550094    1.90730734443091    7.53330044358520
C         4.95503294886884    2.57950509827175    8.74476185908934
H         4.27815376539398    2.36633291736921    9.55928412070089
C         5.92898631786257    3.55208283836215    8.88419606636096
H         6.02519457083260    4.07759008016648    9.82178643488104
C         6.77624772337101    3.85803742721923    7.83048231544647
H         7.53255115481422    4.61814802044022    7.94955836593461
C         6.64603595000147    3.19924708959947    6.61873592390761
H         7.29306325914445    3.44914490590765    5.78954042177904
C         5.66615176422682    2.23118899687582    6.46052099623277
C         3.49396641485865    0.08476179124560    8.17287457668471
H         3.94635203386608    0.09075575260155    9.16839394268542
C         2.50453497736565   -0.94335980659567    7.92739252156505
C         1.92372884522868   -1.60391908609004    9.01447950651435
H         2.21947093338871   -1.33694094966179   10.01855468943377
C         0.96573192926166   -2.57794015771797    8.81162619169338
H         0.51435048993016   -3.07261773809000    9.65772090395621
C         0.58987269376294   -2.92532833913429    7.52306231110834
H        -0.15415805741266   -3.69093072185475    7.36610533516556
C         1.17683673617762   -2.29526653604222    6.43429899478083
H         0.89786276592418   -2.58166516604905    5.43128149310378
C         2.12151181019386   -1.30739141757131    6.62949917716634
H         2.60498451477857   -0.83541930276738    5.75690136402058
C         6.10971265901899    2.31580422301878    3.64771705131298
C         5.45825844275338    3.52936893187705    3.42915765915229
H         4.57485393441941    3.76379109502874    4.01877010799619
C         5.93311112153743    4.40628130026815    2.47374828683986
H         5.43852545769775    5.35184119270746    2.30979103609102
C         7.04363319672470    4.06214314021488    1.71604623399091
H         7.41254468137596    4.74315937376719    0.96473440285997
C         7.67390763246526    2.84427086448500    1.91254370946313
H         8.53005073865667    2.57637814383887    1.31215858560072
C         7.21166907413475    1.96484175076824    2.87779303167749
H         7.69997186081750    1.01218494223884    3.02844465833305
C         6.38743994628521   -0.19846007097909    5.16232640772810
C         7.74552616843909   -0.09924594427030    5.45239709482327
H         8.20982334833538    0.87374897459590    5.53744180651171
C         8.48887343719633   -1.25006708647740    5.63836753959323
H         9.54302837616666   -1.17824466819625    5.85920698885173
C         7.88268918513294   -2.49403488975768    5.54472967112047
H         8.46954147645831   -3.38826058980570    5.68787321644072
C         6.52710070510511   -2.59220426693868    5.27580510208013
H         6.05503630003993   -3.56070186114000    5.21167128037484
C         5.77697764443864   -1.44562573474979    5.08773509936674
H         4.71492499874063   -1.50831343442792    4.87406358552568
C         0.75991778949601    5.40399979999156    3.68728565205734
C         1.23496755172553    6.71069457321177    3.58831149112687
H         2.05993126477946    6.92518161666356    2.92387642737128
C         0.66615328061676    7.72246457469852    4.33863771053364
H         1.04660629510273    8.72959044554299    4.25709449469036
C        -0.39480889561625    7.44865058534805    5.18621263020355
H        -0.84334885203788    8.24072395272991    5.76602689301312
C        -0.88719404026821    6.15684811623764    5.27693173654541
H        -1.72536771228619    5.94147358160248    5.92278999199101
C        -0.31506969160608    5.14110778906526    4.53537440676628
H        -0.71689723712278    4.13946900829284    4.59356195144694
C         1.58398867151138    2.84825881219739    4.84150547698479
C         0.89628339553171    1.71089068411812    5.33833508382018
H         0.34904869625904    1.07511208335504    4.64337641680055
C         0.68221525100174    1.56715796203356    6.71380103602374
H         0.07378394098420    0.74800180853914    7.07415502386457
C         1.20640617075670    2.48685242126950    7.60401509364523
H         1.03250658377108    2.37282946591073    8.66363363474750
C         1.94586693434684    3.56838387283218    7.13081184267539
H         2.36112433464083    4.28220162350399    7.82738355693210
C         2.12715934084796    3.75701340843458    5.77367339452215
H         2.64468396618134    4.63824399692316    5.41550071947139
C         1.47980200315653    1.77142621254524    1.20869407629712
C         0.14141600329390    2.06056046738578    0.95999162015338
H        -0.48942042518424    2.41388304445437    1.76327262856192
C        -0.38267147685849    1.89989845544295   -0.30826802988492
H        -1.42126324753557    2.13086808425684   -0.49122651487060
C         0.42026321346868    1.44687310820467   -1.34124667720194
H         0.01088302204315    1.32818473112492   -2.33264592785050
C         1.74926225400797    1.14581119894945   -1.09712913138329
H         2.37947741781985    0.79079528857752   -1.89867177530922
C         2.27681766122228    1.30210411464682    0.17072923876362
H         3.31755759452453    1.08110622978889    0.35345723787630
C         3.14480059238447   -0.33269814419905    2.69132826018134
C         2.22213317138492   -1.38165981681021    2.79523459991463
H         1.22121847178783   -1.17054040854126    3.15040663212274
C         2.57741347713042   -2.66372104319124    2.41958499289209
H         1.85853864132791   -3.46559818089316    2.49857715698524
C         3.84927937960644   -2.92160549376188    1.93460122159396
H         4.12217357724270   -3.92309906284747    1.64004780810673
C         4.76974536300073   -1.88990857866672    1.82137750772977
H         5.75849915200426   -2.08933068511772    1.43625471183031
C         4.42680190011903   -0.60784622832351    2.20046144219001
H         5.14327420908594    0.19988399064225    2.11332287886001

