76
CSD_code = MIDQEY | q = 0 | S = 0 | Stoichiometry = C35H29F4N3S4Zn | MND = 5
Zn        1.99129810604945    3.14319574690032   11.34609491300321
S         1.90307551959224    2.63773052166299   13.80105878768707
S         2.54481331366724    5.23678179872271   12.59329389464721
S         2.33505930472780    3.61027025172063    8.92384832273219
S         1.84268177214249    0.97644731829372   10.13515728031805
N         1.93181591923349    4.91587176571290   15.14270890046043
N         2.06580088574157    1.38133252843250    7.53529300567664
N        -0.14764354173125    3.60682025458023   11.36127947676962
F        -4.06554953255496    5.07941883773152   16.85685109997037
F        -2.93015845693386    8.91920579380383   15.44193051023110
F         6.58777288035563   -2.56287985771245    5.77917307372607
F        -2.50470599759219    2.72003484566196    3.47471716416108
C         2.09704695359917    4.32145551610378   13.95865491217358
C         1.44858050612731    4.19363797683000   16.30855808824133
C        -0.03434077036298    4.39370198873265   16.49696279991819
C        -0.92521854986626    3.85602647907458   15.57442108132058
C        -2.28276811329758    4.08272147498989   15.68958927711118
C        -2.74244951888921    4.84882914125956   16.74535062850844
C        -1.88297200534994    5.37933302125345   17.68858216976348
C        -0.52622450739792    5.14669317143612   17.55466190996930
C         2.05922847648466    6.35103934623911   15.30354123143476
C         0.72518824690343    7.05357346999085   15.33369483054564
C        -0.24293027567346    6.76069095754547   14.38039503685944
C        -1.47654383406060    7.38069217463219   14.41254489019114
C        -1.72772771578626    8.31225061148461   15.40342752885611
C        -0.77761433476769    8.63875748447513   16.35255164404601
C         0.44810763157463    7.99958059109015   16.31153850389035
C         2.08031702879638    1.93502407822702    8.74528597546084
C         1.82251998201028   -0.03458716860972    7.31823583849327
C         3.08881758379860   -0.73684703935196    6.90174050350268
C         4.15676756017999   -0.81138164970017    7.78955963581236
C         5.33905687513075   -1.42367073533243    7.41989029052539
C         5.43859732242831   -1.96308389773255    6.14945019102736
C         4.39265717857408   -1.90574786454832    5.24712217312414
C         3.21767173616864   -1.28431092388996    5.63222062075828
C         2.29593555280450    2.14173931022334    6.32021634282856
C         1.01830165437916    2.30598299030419    5.53877924735199
C         0.90189416628962    1.81382090835824    4.24572616267356
C        -0.28057194582169    1.95335009225218    3.54030592799557
C        -1.34671653578696    2.58561443122664    4.15228992563756
C        -1.25990589819967    3.08375922977871    5.44041309415666
C        -0.06999632593364    2.94068243934927    6.12806651397339
C        -0.56955750925607    4.82971698083202   11.05910864056944
C        -1.87446441556463    5.24184316148318   11.26882747316899
C        -2.77764585576394    4.34275002609832   11.81356017360240
C        -2.33861243392514    3.06258302205385   12.11351955121907
C        -1.01472530649312    2.73932367285106   11.87168365130533
H         2.65401779379189    6.73113474327354   14.46729172252052
H         1.19727662941866    8.24321444495101   17.05030427115031
H        -1.00319607659488    9.37524583297030   17.10715642479583
H         0.15501742295024    5.55900585961357   18.28394812839019
H         2.69283644217366    3.12083465529475    6.59910076937363
H        -3.00616130437997    2.32352076995947   12.52765060692964
H        -2.23856467169108    7.15264100264481   13.68458706230585
H        -0.54964005464920    3.25390915432452   14.76148707469329
H         0.02304410952844    3.32901894886929    7.13090623345905
H         1.67153276967220    3.13379376385682   16.16487338062618
H         4.50528664567350   -2.33914758439965    4.26601976247488
H         0.17104247072046    5.49660437466346   10.63846738019241
H        -0.38347669175904    1.57949086708822    2.53403024340943
H         1.05833835998422   -0.13048956689349    6.54068152453592
H         3.04364029955809    1.61077823083022    5.72331726767743
H        -2.27594403265511    5.96480862070166   18.50420691097978
H         2.60320330177931    6.54334467209010   16.23289573317993
H         1.44295236885954   -0.46298087604290    8.24831962156932
H        -0.62493979073766    1.75492756893772   12.09342464421824
H        -2.16967303670385    6.24613905884954   11.00919450967166
H         6.17446003636176   -1.48996943408667    8.09838029694240
H         4.05469106459029   -0.39061843761306    8.77803229728597
H        -0.03057571225252    6.03960040182736   13.60608410960373
H         1.99420165408631    4.55810949136258   17.18287718832615
H        -3.80204616568728    4.63199170556068   11.99640781403687
H         2.39015057886645   -1.23331049665168    4.93936477984155
H         1.74451573610031    1.32337972863624    3.78058156091578
H        -2.11136199550782    3.57501689105858    5.88385625216476
H        -2.98309092706117    3.67363133395695   14.97906953322533

