52
CSD_code = MIDRAS | q = -1 | S = 0 | Stoichiometry = C25H20Br2O3PPd(1-) | MND = 4
Pd        2.94578024391841    2.74688786694523    4.89777652494434
Br        1.26604443156936    4.02774450635193    6.32043242650782
Br        3.67724972832210    0.95042737699124    6.32763656034235
P         3.02379551174695    4.17091342129043    3.21175925286280
O         3.48338550538504    5.64182078819201    3.72849290290437
O         3.85976423058240    4.13972714897954    1.81305948507215
O         1.54975426596237    4.51341690110447    2.61860901589503
C         4.26451507915126    1.21746428966955    4.44918586858333
C         3.65220130171801    0.32772204038072    3.51988456781029
C         3.19337319895916   -0.97879871364671    3.79916966363901
C         2.76567455092455   -1.82065593145448    2.79694715946256
C         2.76873417487389   -1.41307959603540    1.47146429757672
C         3.24053961846616   -0.14177352180048    1.16291106301862
C         3.68795809192620    0.70153903058334    2.15060587963085
C         3.86564726892143    5.75253276866862    5.05453287802452
C         3.33886222716436    6.78321764678153    5.81528269404136
C         3.66994807222796    6.88327011625478    7.15546871961692
C         4.51078590064031    5.95222155736482    7.73913633301229
C         5.05767696771296    4.93673066055564    6.97256911660190
C         4.74959875438212    4.83358671976423    5.62275959875825
C         3.78349418967116    5.19532881480135    0.93625062005062
C         2.81329196049312    5.20497078264801   -0.05709349034459
C         2.77300144906231    6.24555188057982   -0.96706267583438
C         3.69413840017041    7.27675960572477   -0.89217309318368
C         4.66051559739919    7.26387752637275    0.09961777296817
C         4.70861898059912    6.22805372186313    1.01438970732372
C         0.50141993200133    3.73259142480764    3.07342767433671
C         0.62695458224106    2.34561932783344    3.14499904599825
C        -0.41714830132120    1.59456510761738    3.66567970908409
C        -1.57685078942203    2.21671769097135    4.09632623259950
C        -1.70613709113655    3.59018819663170    3.98526845330021
C        -0.66800782083032    4.35347392118666    3.48030425996091
H         3.18447819160178   -1.32454683485376    4.82549478329265
H         2.41087931310734   -2.81204089350179    3.05382520848346
H         2.41588105828277   -2.07335766377223    0.69052954672348
H         3.26040822274825    0.18860725306243    0.13091549493204
H         4.06426873035033    1.68646339965443    1.89708636377208
H         2.64284061834395    7.46814239666946    5.35671294846212
H         3.23889015201489    7.67454168756426    7.75010972688831
H         4.73528728702945    6.01169130929656    8.79384783035856
H         5.72015314972841    4.20942234743943    7.42036640061109
H         5.23972949798612    4.08376804092487    4.99700704736640
H         2.09968404466993    4.39667063645913   -0.10130250253853
H         2.01496452305883    6.25159541005639   -1.73728792435681
H         3.65785044366781    8.08935906498467   -1.60359737199750
H         5.38057304671852    8.06715846400874    0.16465878991042
H         5.45292635307996    6.20688411604085    1.79555785920147
H         1.50351533356535    1.85434690044111    2.72435064727008
H        -0.30937976658534    0.52114054752291    3.73617755779953
H        -2.37690875408566    1.63066920080193    4.52427537023681
H        -2.60712674146953    4.07943031307866    4.32370810113984
H        -0.73299491730280    5.42934122614554    3.43574589786910

