93
CSD_code = MIDSUN | q = 0 | S = 0 | Stoichiometry = C44H42Cl2N2P2Ru | MND = 6
Ru        4.91879681459910   -5.96810648433169    7.40614324766234
P         5.26848496182704   -7.56803546161685    9.00117026755891
P         3.06224138244175   -4.92999263253085    8.18495612065144
Cl        4.75127560540458   -4.42028522832813    5.56282486394068
Cl        3.68229164213151   -7.60706656770858    6.18461591221488
N         6.19926274746967   -4.65646092842482    8.12804476114012
N         6.57847795362942   -6.70397927968036    6.32193430861631
H         6.11705396469208   -6.70927023744839    5.40418055359534
C         5.96781464271699   -3.54134006063570    8.73516786792055
H         6.79615977122199   -2.85440699103437    8.88490505887494
C         7.58557255175787   -4.97430229055651    7.74348993372759
H         7.93843135307731   -5.72802294007171    8.46595526305878
C         8.57429807935994   -3.79966397573352    7.75000001500296
H         8.69666331386146   -3.41339871722211    8.76444171156308
H         8.18480914193595   -3.00411206596284    7.11017181221055
C         9.95155223265537   -4.21981622124359    7.24359797677582
H        10.61605954321258   -3.35431574962214    7.26715983549646
H        10.36840534569665   -4.98094299245114    7.90838745212869
C         9.85984814186910   -4.77584835198418    5.83033547796379
H        10.85161178392483   -5.05292701669904    5.46869522853449
H         9.45471132666441   -4.01585578674708    5.15962422404892
C         8.95097438490936   -5.99754099485060    5.84283160580507
H         9.39107317483617   -6.74497056632409    6.50318653514794
H         8.87091525985415   -6.41696161838678    4.83742617898834
C         7.55778658608349   -5.60698459163723    6.33514322082794
H         7.15836121957547   -4.83307636685267    5.66349864511876
C         7.04848052119154   -8.07576754385313    6.55469325409951
H         7.73057236933442   -8.39534309482991    5.75508640511172
H         6.15186924373838   -8.71227785227241    6.50429709346634
C         7.71941510812337   -8.28310369333853    7.88622463162711
C         9.02648294427153   -8.74993585208218    7.94045118508166
H         9.54861639785626   -8.98146951399558    7.02169928334790
C         9.66723576813868   -8.94327994775518    9.15246915626120
H        10.68403420685969   -9.30598356917602    9.17192957869253
C         8.99932938594705   -8.67143213573667   10.33332636910441
H         9.49322382672076   -8.81250683108779   11.28312693050290
C         7.68503826763832   -8.24033001085142   10.29776865008920
H         7.15668208193441   -8.05817967735753   11.22191603920712
C         7.03014459271506   -8.05518706714413    9.08459302567756
C         4.48340162479081   -9.20314182376735    8.82012991754477
C         5.18225032512217  -10.39826203044154    8.70212843277139
H         6.26323079276044  -10.40871782483781    8.72728295537596
C         4.48939141415982  -11.58796990803723    8.55111663619392
H         5.03717082681349  -12.51465501872025    8.45612562923955
C         3.10590110638955  -11.59309419128105    8.51584396049055
H         2.57316069622723  -12.52440995917594    8.39074772159550
C         2.40603847727989  -10.40212906110970    8.63377464794182
H         1.32665704432626  -10.39817682776154    8.60019910340167
C         3.09092727966921   -9.21289704578445    8.78187618009109
H         2.55865212351017   -8.27565763733949    8.85513573242266
C         4.92616372720517   -7.19110928043183   10.75367354776690
C         4.26031550533924   -8.05091583388268   11.61973132677953
H         3.92464808156040   -9.01724595704979   11.27303723411354
C         4.02346103739674   -7.66604161199625   12.92856584088690
H         3.50541608112328   -8.33896094511238   13.59651638531879
C         4.44354604245993   -6.42758286835461   13.38358479222464
H         4.24838763784711   -6.13020821305024   14.40343253739727
C         5.11603115092886   -5.56901461814534   12.52713267303327
H         5.44561554816877   -4.60079206366519   12.87574745759981
C         5.35620043354943   -5.95081885358417   11.22145749489239
H         5.87688458346064   -5.28733099257805   10.54536165264215
C         4.77426396318796   -3.05064493189122    9.38765959145605
C         3.47348758971563   -3.58286300961064    9.32220526783090
C         2.45182433273257   -3.00717623093165   10.07611669169732
H         1.45736085886906   -3.42726439674327   10.00799616776813
C         2.68042308449882   -1.92032305867679   10.89517345298325
H         1.87349038690843   -1.49321652880024   11.47157220418858
C         3.95490659317981   -1.37136672495715   10.95222430961901
H         4.14806792964420   -0.51063909361494   11.57544528082149
C         4.97220929115527   -1.92466743688778   10.20994221253855
H         5.95971787577751   -1.48664041126273   10.26563895560662
C         2.02958617468882   -4.09412806381175    6.92838216772741
C         1.67528038941279   -4.83581744419208    5.80159412120266
H         2.05850627671193   -5.84090680165789    5.67757229487961
C         0.88958289901426   -4.27285653741384    4.81457054942595
H         0.62687818848176   -4.85498790235440    3.94313602495621
C         0.45870529658732   -2.96143040959638    4.93237531470118
H        -0.14972568448249   -2.51792340440746    4.15729940343434
C         0.83165979482430   -2.21294546247321    6.03455904898504
H         0.51998069614144   -1.18136239781685    6.12016494871883
C         1.61615593526609   -2.77135740097499    7.02958484711124
H         1.91614271156381   -2.16296051003918    7.87049603194014
C         1.78936962765050   -5.85322894676021    9.11740377706631
C         1.91222504721384   -6.02187796794215   10.49501241776752
H         2.71308107093755   -5.52765262616160   11.02547137954865
C         1.00864091203810   -6.80562526347455   11.18771197293914
H         1.11517716338460   -6.92342301903372   12.25647886710671
C        -0.02506534955305   -7.43775519698431   10.51618357432496
H        -0.72827806685561   -8.05233254923647   11.05902398660942
C        -0.15374247599400   -7.27606003790139    9.14685526939813
H        -0.95820937134614   -7.76490457011606    8.61678208245130
C         0.74765597818240   -6.49146413570057    8.44910310816914
H         0.64623170049486   -6.37948405491390    7.38009313645205

