39
CSD_code = MIFBIM | q = 0 | S = 0 | Stoichiometry = C19H12N3O4Tc | MND = 5
Tc       12.40009855907530    5.13007117609221    4.29467055058339
O        13.58078687861551    6.05416435795657    4.94636995371256
O        12.76377798200120    3.44946258261024    3.42037443773270
N        12.08159684903921    5.89733926050786    2.50200106200065
N        10.52064492825369    5.69096291490175    4.44564284330496
N        11.71610521550803    3.86764086396579    5.79486390746974
C        13.33047335885844    3.28431489946457    2.23416743556607
C        13.84954983332984    2.01328793427814    1.94331507935390
C        14.50117110843601    1.76365347950639    0.75625776149287
C        14.65917349083878    2.78001330048236   -0.17679769714756
C        14.13597966536626    4.02764514047252    0.08501413045087
C        13.46251968793855    4.30768966287436    1.27609080262851
C        12.84237361424273    5.65585821119868    1.37234371566734
O        12.95615046112552    6.44622285034246    0.45317331156178
C        11.01901963232779    6.80966470191435    2.46021015132987
C        10.74628307193902    7.75154747301436    1.47434413116470
C         9.60461404051918    8.53023764131030    1.56853538230974
C         8.72471399536854    8.38738063344928    2.62786564833365
C         8.97471353231210    7.45641223275658    3.62115216515441
C        10.11456640355996    6.67073217354204    3.53620394058524
C         9.70216957253644    5.13020566280164    5.37098536338927
O         8.52558005381323    5.36111564550780    5.57737178304054
C        10.44251603078852    4.07581284025753    6.14863238637257
C         9.84037836683562    3.37290815645292    7.18201147030444
C        10.58664473945651    2.42939790890148    7.86869188342036
C        11.91103738330094    2.23121817859882    7.50168174092314
C        12.43716698173134    2.97022686843606    6.45510356104058
H        13.72285964252699    1.23734750638061    2.68393160961221
H        14.89434192923118    0.77736269213357    0.55876623606198
H        15.18174539208055    2.59272533773831   -1.10202420756579
H        14.22619953191394    4.83002721189506   -0.63188770217744
H        11.42458366992517    7.87641134905183    0.64816702201438
H         9.40723731748787    9.26322649557420    0.80097883485910
H         7.84076646924606    9.00364346851439    2.68757939190626
H         8.29615421549444    7.33237494086109    4.44863018148789
H         8.80789759030948    3.58366938102411    7.41370740019399
H        10.14714655966342    1.85967270798202    8.67296577843278
H        12.52887471636880    1.51143766889179    8.01405205952184
H        13.45818752863288    2.84351448835632    6.12245649390582

