131
CSD_code = MIFFIR | q = 0 | S = 0 | Stoichiometry = C52H70N4NiO4 | MND = 4
Ni       27.42738402602012   13.71356915521983    6.14478450135932
N        25.65122005531335   12.96767447232133    6.16957945098615
O        24.48783732459044   13.65700268597845    6.29472710226631
H        24.77305360668608   14.64502727135557    6.20479805218271
N        26.90609767085258   15.51523057445141    6.11679118468703
O        25.67820904986681   15.88087603423622    6.03977626584753
C        27.89974477738349   16.37069771030563    6.09557940462474
C        25.63747198346385   11.66987065034368    6.20532297923370
C        27.72160859594036   17.81890026686613    5.92665370584782
C        24.42354553175542   10.86653001688505    6.39441546864497
C        28.39071103277042   19.89004613783674    4.90043645260493
H        29.04331226627265   20.42775768710183    4.22742909444642
C        26.56410146314414   19.86496249409019    6.43867758068597
H        25.78374555017689   20.38265491850839    6.97786690434236
C        28.55330231966132   18.52984833807170    5.06132222928999
H        29.31841772757905   18.01100681373471    4.50343351877239
C        22.13025027532821    9.31038742575968    6.77024734977800
C        24.42481710582728    9.81479823799750    7.31035636041994
H        25.31314254911877    9.60640484709232    7.88729065487021
C        26.71588936454597   18.50222260229861    6.60564032685500
H        26.05689585769772   17.96502163609891    7.26973203512955
C        27.40082529063040   20.57990940475281    5.59155621122130
C        22.13266273630601   10.36454069652852    5.86541847283970
H        21.23960858434165   10.58068170923516    5.29703822952902
C        23.28916276464321    9.05423609399116    7.49506943170087
H        23.30166449545303    8.24373342654596    8.20945244294993
C        23.26020979533840   11.14012481182792    5.67972308012842
H        23.24568803296959   11.95066765233844    4.96800218578386
C        20.89134734663526    8.49915905213084    7.00489008947385
H        20.27439056720071    8.48834725814483    6.10414770092595
H        21.16215313141574    7.46915797756931    7.24701681334847
C        18.81784041441322    8.27465409130186    8.44657297036992
H        18.19331517867300    8.25043700665568    7.55019457540465
H        19.09738600061397    7.24444517258031    8.68096244732420
C        26.28757138458916   22.29922131299893    4.17382438114202
H        25.32345799954001   21.81919895514395    4.35610170443803
H        26.72565809321207   21.83158822595662    3.28904281430204
C        15.96033460616376    8.62439929189841   11.06090192662193
H        16.56364046784847    8.63185302143759   11.96619158500317
H        15.06616942723026    8.03475877349936   11.24925321831682
H        15.65814272158103    9.64673222925460   10.84403160383516
C        26.07789326908316   23.78801347385703    3.91280497830242
H        25.62852586625192   24.25109282627074    4.79480779169985
H        27.04679191023124   24.26606196144149    3.74757818816981
C        18.01304970048220    8.85465632158486    9.60698837813851
H        17.73290476009866    9.88441254148658    9.37288056440495
H        18.63845974127672    8.87915487012719   10.50261462242482
C        27.20631832455385   22.05150066363536    5.37678641356064
H        26.76214964937392   22.50433826383270    6.26563094044661
H        28.17052117611372   22.53124973117826    5.19389840077768
C        24.97829448039644   25.52355450260056    2.43055879445493
H        24.52494491725928   25.99110572873575    3.30792026414135
H        25.95002138849557   25.99658469109353    2.26970545536234
C        20.07780486587502    9.08804608824867    8.16417713749676
H        19.80323159213992   10.11701830442809    7.92148283544692
H        20.70227449221025    9.11680752883070    9.06001542511088
C        16.75245787307514    8.04322445373712    9.89620873464543
H        16.12327217602261    8.02344415490679    9.00330816009139
H        17.03178722172332    7.01227755437833   10.12606208238407
C        25.18241079967106   24.03488534506076    2.70102245428019
H        24.21148452717331   23.56219509590707    2.86699991454903
H        25.62989568760434   23.56717108190401    1.82057272685514
C        24.09219977071027   25.76363518835361    1.21428495940074
H        24.53413597508444   25.31642121727055    0.32627545836130
H        23.96616843961596   26.82901445420487    1.03552065230802
H        23.10944376299664   25.32210958789985    1.36544613489243
N        29.20348107238176   14.45950445654401    6.16979516668245
O        30.36679122437368   13.77023387422510    6.29577575674307
H        30.08168978616951   12.78216303324827    6.20571881178102
N        27.94869656856436   11.91189218523061    6.11827975865901
O        29.17661461417622   11.54614550435792    6.04206203909227
C        26.95501847105138   11.05647744559051    6.09691464949354
C        29.21724673763006   15.75733378460901    6.20473232936218
C        27.13308917880719    9.60825408691954    5.92811239162218
C        30.43124607155643   16.56064821428220    6.39352941981113
C        26.46407106283100    7.53745033279109    4.90122007510080
H        25.81164907037276    6.99996587056469    4.22786290307431
C        28.28985111318302    7.56184956907700    6.44046562386487
H        29.06990780557080    7.04392295890388    6.97985211453104
C        26.30168393745668    8.89763987268048    5.06223640810231
H        25.53687639345524    9.41671563465876    4.50415078255594
C        32.72485029270147   18.11638715063405    6.76908268793380
C        30.43007599206589   17.61274510099690    7.30903831588891
H        29.54173201688232   17.82152127842006    7.88580242792782
C        28.13832069980856    8.92462190403466    6.60749868109886
H        28.79719710534558    9.46162718866226    7.27186536426639
C        27.45340194229319    6.84724119749361    5.59279413771589
C        32.72231223580711   17.06191571503533    5.86462608823072
H        33.61539994834799   16.84535185100551    5.29645936576236
C        31.56588400766632   18.37310828855554    7.49361759374743
H        31.55345341136896   19.18391335627168    8.20765695896992
C        31.59459990132872   16.28654257807596    5.67905450635876
H        31.60906093464736   15.47567247682499    4.96770167302606
C        33.96392358368958   18.92738657406093    7.00361241660566
H        34.58109893480955   18.93763153499448    6.10301173385732
H        33.69338420118392   19.95757184296733    7.24526869988751
C        36.03700190445008   19.15178431590384    8.44590744312309
H        36.66194892527814   19.17541500277305    7.54981541142878
H        35.75768663709081   20.18218224556559    8.67974430578038
C        28.56903525444595    5.12779189602023    4.17691971164631
H        29.53465230327456    5.60286581753231    4.36405849811013
H        28.13598083344606    5.60048853081899    3.29233658446037
C        38.89291147492906   18.80258736762013   11.06224358248824
H        38.28890453793660   18.79538553356599   11.96706187022425
H        39.78696819223970   19.39224331159974   11.25111586975613
H        39.19518916864741   17.78018329668210   10.84584885516331
C        28.77268996141094    3.63895525130663    3.91131654508242
H        29.21539139750046    3.17029039494725    4.79374186391960
H        27.80220363119097    3.16640070581652    3.73954917120843
C        36.84110756912088   18.57203327092239    9.60691843669121
H        37.12134190563332   17.54220581197652    9.37326182106744
H        36.21516628702096   18.54779919920270   10.50216951422287
C        27.64748835854105    5.37563534575772    5.37769478488374
H        28.08876280776732    4.92178200199276    6.26746650894890
H        26.68337928587168    4.89688203661619    5.19177756678682
C        29.86859597851253    1.90361115158308    2.42636778109677
H        30.31339378718511    1.42858052791823    3.30405815552266
H        28.89474692332545    1.43794550159464    2.25706746137874
C        34.77693717914401   18.33862305176761    8.16333550642231
H        35.05132680810476   17.30949445558168    7.92108654977898
H        34.15219576444960   18.31033617175640    9.05899792194942
C        38.10157223253918   19.38339039237185    9.89684722558485
H        38.73136470316330   19.40285969023698    9.00438066382629
H        37.82215847825469   20.41441977252401   10.12619039639877
C        29.67304383978479    3.39233035249845    2.70310361522327
H        30.64616557800126    3.85790330171807    2.87641118352999
H        29.23307916984034    3.86727771977720    1.82272587940809
C        30.76057913442055    1.66391774818878    1.21436458885362
H        30.32671915974129    2.11782497444549    0.32581145519642
H        30.88120692191715    0.59862319572675    1.03148282136224
H        31.74506604999799    2.09870402256604    1.37341759251372

