103
CSD_code = MIFFOW | q = 0 | S = 0 | Stoichiometry = C47H53P2Rh | MND = 7
Rh       10.82311597064923   19.56247826150973   19.56883215984882
P        12.04376569346741   20.90486682316779   20.83450778639246
P        10.55475326830003   18.34275415935899   21.40155316212878
C        10.80954209410738   20.54662275241171   17.62723016392118
H        11.05300042816768   21.57594273175612   17.39335308969338
C         9.49403841574056   20.07615989834201   17.87752399223764
C         9.57231024755090   18.66506672685269   17.98650585164835
H         8.71626229773081   18.00840474772287   18.06941574042401
C        10.85085838816492   18.23697130195399   17.43375561773368
C        11.35920415325399   16.97355479913426   17.12063753078458
C        12.63525407744900   16.92246126192177   16.58075177255514
H        13.05402303366618   15.96224741350942   16.31117794992099
C        13.39680336195513   18.06974173782717   16.37579603478057
H        14.38877740284430   17.97082858046861   15.95614534645070
C        12.92081708558019   19.33321442945080   16.69209485609271
C        11.62612749706905   19.41412531999372   17.21037405342021
C        10.54476929867816   15.73662847476708   17.35803672904074
H        11.11378795912038   14.84419516387363   17.10782210907571
H         9.64052792867761   15.75348077306376   16.74842421253081
H        10.24344463573618   15.67401899468438   18.40453103083233
C        13.74528622596241   20.57018200289952   16.49435465425790
H        13.30150923952816   21.20578537511009   15.72718553155633
H        14.75836089301227   20.31650143959801   16.19045494280435
H        13.79015713358232   21.14618180269095   17.41977559787567
C         8.28100204433437   20.93529269211079   18.10081196357080
H         8.59430599886596   21.98569233986904   18.05660224772501
C         7.68627097573705   20.67801033739327   19.49191456083135
H         7.35232432575357   19.63948187040292   19.56039849325722
H         8.47413281360867   20.82210949278025   20.24616931189076
C         6.50556119472365   21.60091851670534   19.77494281612239
H         6.85201405762244   22.64047863025565   19.72671495825796
C         5.44447523496969   21.39184611145664   18.69457676490103
H         5.06520717159746   20.36887201363654   18.76091691970846
H         4.60380626717784   22.06957816517345   18.86371786316501
C         6.02489669110309   21.63161023582473   17.30302811801342
H         6.35993733454569   22.66838048826128   17.23529455763641
H         5.24319574316796   21.47920224207470   16.55692687809570
C         7.20205099040220   20.69325204193668   17.02939938553841
H         6.84788472630415   19.66187481513833   17.14917035093624
C         5.93451689756822   21.33980949262370   21.16555770442554
H         5.09844643321961   22.00554585089058   21.37035636195576
H         6.69529176358492   21.49527281545523   21.92769567149584
H         5.58546510119297   20.31219283915902   21.24518638463308
C         7.76840323280162   20.80424116823374   15.59920510991344
H         8.67485988466730   20.18749824512415   15.57362969510073
C         6.79382244510852   20.23297456730582   14.56938629460309
H         6.50423518535752   19.21810299421668   14.83339865263152
H         7.25947070154702   20.20909866466340   13.58645007027633
H         5.89510974298162   20.84164969692826   14.50050692460397
C         8.16133874903381   22.22596970201005   15.20338129100453
H         7.28578928665314   22.86596753550652   15.12414348100437
H         8.65757695246861   22.21337248322527   14.23496953032659
H         8.84754978960792   22.65871460723747   15.92627633315103
C        11.65851421457873   20.57309459945699   22.62630539801637
H        12.42417112520104   21.00442851585580   23.27758590085261
H        10.69922915559254   21.04499640050697   22.85362646063111
C        11.56697209775235   19.06260603382533   22.79292830730170
H        11.17589722437391   18.76933011659904   23.77117988711625
H        12.56649927313087   18.62625750952577   22.67933149887919
C        11.85262549855112   22.71392414831747   20.71595503700146
C        12.82377827699777   23.53599753949543   20.15446528564650
H        13.77782054287531   23.11881785465653   19.86285569811223
C        12.57235199335913   24.88413730345489   19.96858439285547
H        13.33482165114970   25.51759817229653   19.53829651705956
C        11.34654085368574   25.42107301735104   20.32399711436794
H        11.15373531666590   26.47366700542609   20.17695758235831
C        10.36117360596213   24.60141169914778   20.85247314396577
H         9.39665717745671   25.01407118047884   21.11171726159597
C        10.60947791403183   23.25546794283768   21.03630166463103
H         9.83181516449365   22.60714820613859   21.41840162422545
C        13.85243384408261   20.66902012329049   20.84583793917375
C        14.36257819257905   19.68277548108426   20.01050065442577
H        13.67434813092876   19.12740659045051   19.38073025055236
C        15.72081236277796   19.42433236485282   19.98139370869506
H        16.11207494701798   18.65966055363067   19.32660658516711
C        16.57619078384804   20.15114030219183   20.79275118463711
H        17.63836848781461   19.95517306238719   20.77306860546361
C        16.07260781554893   21.13393548619939   21.63173321885413
H        16.74340408242857   21.69963169306576   22.26265886074941
C        14.71516839369103   21.39438314411086   21.66164667210649
H        14.32357717555011   22.16886610992433   22.30816305323440
C         8.87686295725075   18.17382139253313   22.09710652358749
C         8.01592858082656   17.31761164049820   21.41221762378827
H         8.40547396463964   16.74894319763937   20.57708549175799
C         6.69639464171871   17.19030022887343   21.79604461477249
H         6.03877263201761   16.51756629476568   21.26407527955716
C         6.21317568937401   17.93213448539565   22.86362327929911
H         5.18030616876839   17.83734700033252   23.16541203685848
C         7.05540916560248   18.79998256782008   23.53678842365151
H         6.67720160139684   19.38416988419967   24.36370286398010
C         8.37945879969486   18.92740649506904   23.15296357638501
H         9.02310814239200   19.61375476319283   23.68415910187862
C        11.14414423098677   16.61810395327683   21.47883086294789
C        10.74312210330322   15.71017974217696   22.45177343705595
H        10.01791527635243   16.00594587543693   23.19772854357777
C        11.26566942450869   14.42949859499459   22.45323963083035
H        10.95129148223509   13.72121193093591   23.20646617996595
C        12.18895823000585   14.05095094829925   21.49099884215918
H        12.58919885845022   13.04749315124863   21.49567478856289
C        12.59467789391516   14.95512825226733   20.52285167120665
H        13.31077664315801   14.66029231018395   19.76994704150773
C        12.07251674784359   16.23513932958847   20.51793259992854
H        12.36515299772782   16.95364017703585   19.75975546826936

