92
CSD_code = MIFHOZ | q = 0 | S = 0 | Stoichiometry = C45H38IIrO4P2S | MND = 6
Ir       11.35928780492577   12.82184206686738    5.70276186888749
I        11.82298636565420   12.46063944746541    8.35207904176508
S        10.57779122632523   12.18224704732202    2.65435709475913
P         9.10345162145896   13.06098774796640    6.23461373167088
P        13.62671048686666   12.75079886907368    5.14853214734250
O        10.38472431429297    9.48184686034747    1.77906769942873
O        10.77298307548137    8.41151876440982    3.72056044255835
O        10.96094649486942   16.86185148101232    2.97916169159126
O        10.55767781292196   15.03851503848158    1.71493433457384
C        10.94516608658512   13.27648176961697    3.84851619384740
C        11.05830931219183   14.68375287249153    3.94945893078191
C        11.39191208124791   14.89189618581485    5.26975294426391
H        11.56219552526921   15.91306482381544    5.60597728920641
C        11.13671595839534   10.87875421859358    5.02657129136975
H        11.27609221149703    9.90515005879215    5.50319505715648
C        10.81200203771620   10.75453655482427    3.72015449443591
C        10.86530002677694   15.66245115756295    2.87126549883659
C        10.63326333504692    9.51605740348006    2.96320679061474
C        10.34058722340345   15.87223462479781    0.59242298242576
H        10.01761792311879   15.21867248661822   -0.21409717037292
H        11.26268300836573   16.39113686106943    0.31923962883476
H         9.57479962575449   16.61909015225046    0.81474657333826
C        10.61773944827689    7.17907624769864    3.03646680544983
H        10.76064047128461    6.39935085132708    3.78028661776316
H        11.35916168232728    7.09059140775751    2.23935798753299
H         9.62087412037127    7.11183187219881    2.59511049566641
C         8.34102748192572   11.85498526962011    7.37338089832984
C         8.63037585382515   10.50356672789671    7.20187892533740
H         9.30975506671968   10.20027304140078    6.41826104159430
C         8.07654560510982    9.55597805856947    8.04064259855977
H         8.30840816570386    8.51085266566905    7.89751545971349
C         7.23876220612961    9.94859543112103    9.07132392068701
H         6.81173848813934    9.21000062944618    9.73298506339695
C         6.96602613572662   11.29189209577614    9.26143433771412
H         6.32843153701568   11.60491378014698   10.07484213615268
C         7.51397746022882   12.24480998996312    8.42100219552059
H         7.30395028654176   13.28953279919034    8.59395159198576
C         8.56117727838473   14.65254047046896    6.93533309153683
C         9.43589520018067   15.44121675443768    7.67224104845799
H        10.45327719843834   15.11873661725950    7.82726507480601
C         9.00242152333088   16.63643221680756    8.21942278939974
H         9.68959370777737   17.24288638647429    8.78999844612517
C         7.69440694283251   17.05068708853540    8.03866717208471
H         7.35775013539697   17.98593995787346    8.46064940360120
C         6.81182797758526   16.25906352231915    7.31978225068925
H         5.78670352906932   16.57286908579037    7.18630116634621
C         7.23797185453606   15.06373666653969    6.77355522298675
H         6.54403444220100   14.44390687989201    6.22102000321677
C         8.07886050917472   12.94775701641487    4.73345890712093
C         7.95142553360205   14.07451862926878    3.92154239891185
H         8.33456603871094   15.02781524518623    4.26225321730641
C         7.33750408818079   13.97840786796565    2.68823450423812
H         7.24393319079596   14.85674139666489    2.06649448018053
C         6.85343039615625   12.75769662077352    2.24565817671227
H         6.38711069295747   12.68063567213864    1.27495638921686
C         6.96850468876791   11.63723649520333    3.05055624458117
H         6.58943319552665   10.68505291103585    2.70976404859393
C         7.58079702750196   11.72829947899465    4.28803330741661
H         7.66896773854281   10.85003370654684    4.91159391259170
C        14.54572664440149   14.30938530426823    5.37053408219969
C        15.51802794303472   14.74975199458454    4.47602817221154
H        15.74707208542770   14.17486972201422    3.58889277463507
C        16.19817370005937   15.92951103583819    4.71932529996578
H        16.94579658812786   16.26809662055311    4.01650665686770
C        15.92649978416996   16.67227278473332    5.85650632992416
H        16.45787225143609   17.59481369983172    6.03718989603600
C        14.97824062203308   16.22559220844997    6.76155581634179
H        14.77245520836846   16.79278100811909    7.65689485211167
C        14.29114434321975   15.05035227673947    6.52110252736666
H        13.55866563663925   14.69922328258537    7.23230426718198
C        14.76148748489756   11.54767479285154    5.92617575812218
C        14.26374257823882   10.41176634437834    6.55331072943427
H        13.19857116630529   10.26217348708541    6.62597490547034
C        15.12986649656696    9.48324920605583    7.10196423914703
H        14.73314824811231    8.60911117892393    7.59577451464018
C        16.49780935012529    9.68032188905334    7.02697990264249
H        17.17434825530592    8.95856346742810    7.45982414405417
C        16.99880811431001   10.81019772154430    6.40096716818988
H        18.06563412720453   10.96959050083840    6.34318828832292
C        16.13808112641079   11.74212262138874    5.85224632114699
H        16.53839384189155   12.62412988764781    5.37375207166901
C        13.83249468310707   12.34964808917695    3.38828004872758
C        13.65853397327251   13.32802517111412    2.41123713267991
H        13.51561264915257   14.36060062358789    2.70252447618064
C        13.65413379008805   12.98054138935022    1.07380663955234
H        13.51847608099303   13.74453218959017    0.32243487211005
C        13.80300453258958   11.65492495825723    0.69861051693385
H        13.78393640509180   11.38403576750160   -0.34617781296111
C        13.96583138349575   10.67679893885157    1.66514890462993
H        14.07377153102218    9.64220515984015    1.37465522127633
C        13.97751533362240   11.01958420489380    3.00488775867193
H        14.09471358408863   10.25616442580833    3.76249363563842

