60
CSD_code = MIFHAN | q = 0 | S = 0 | Stoichiometry = C24H29N2O3RhS | MND = 8
Rh        5.14569741479938    8.30175606684598   12.89838425840533
S         5.79120985859243   10.49976006164433   10.72295623438242
N         6.46790938088227    8.72559418907363   14.49016285051815
N         5.20724745683020   10.25528182138989   12.25147774457868
O         3.87980691349981   10.84121411176833   13.94880764892382
O         4.72371179199063   10.38325921179749    9.75489768753401
C         6.74520690635642    8.14953216290993   11.65664134817760
O         6.56119868075885   11.71698684683456   10.67483312473184
C         6.87520649657979    9.08208220202444   10.63971500486988
C         7.22990329077165    7.73983026112536   14.97274332733460
H         7.10504673952765    6.76340912257217   14.52569283036373
C         4.08925089952629    6.55434471675769   13.75978661600938
C         4.36666530746582   11.10958595777157   12.85052574492498
C         6.59609646983592    9.93218971719743   15.04065496577865
H         5.94756197274922   10.70855657411692   14.66796153134024
C         3.15216098003460    7.65804097746478   13.86386899277470
C         7.81157385210381    8.98777577416298    9.61739578545409
C         4.07302506058166   12.40939155644152   12.14486883010660
H         4.99786130015413   12.96516629410046   12.00884359900721
H         3.36241572042483   12.98842275285379   12.73007765671261
H         3.67087669714844   12.19623222183515   11.15670742570847
C         7.64274061378154    7.08187609414933   11.65137221542064
H         7.60149354062676    6.31498476324970   12.41281930011844
C         8.14232596598260    7.91864481839917   15.99529086659295
H         8.73081307891912    7.08389706158211   16.34268886852349
C         8.28374140661622    9.17782929607148   16.55791854771146
H         8.98896519839856    9.35351180244136   17.35592912586869
C         8.68527756895209    7.90822256857258    9.64323254643575
H         9.42679211989767    7.80032520091344    8.86527749651425
C         7.48611633749041   10.19778775245092   16.06883897654044
H         7.54410035042497   11.19413201318015   16.47697208657785
C         8.60623717703345    6.97388162443177   10.66097890473812
H         9.29540876913663    6.14088586006036   10.67728153621251
C         4.32863938468539    6.29283854133732   12.38061234538459
C         3.68049672966260    7.33665309200536   11.63386669930839
C         2.88253432153550    8.11048729414758   12.56419775620031
C         7.84461804825826   10.01656234083718    8.53629099037150
H         6.85808893797905   10.10638556703950    8.08437087028948
H         8.57536064927866    9.76049354112845    7.77263649725825
H         8.08543808070226   10.98899118716832    8.96233182939271
C         2.46924645931522    8.13219211792054   15.10881427820064
H         2.92587171369859    7.70276475071972   15.99693309477279
H         1.41606942080352    7.84714325667908   15.08752049154273
H         2.53213196070641    9.21700696284233   15.17363693633320
C         4.44389755160237    5.65161491704504   14.90419183682164
H         5.27031586864414    4.99082982456179   14.65197571316229
H         3.58059323579365    5.03129147325988   15.15183567670909
H         4.71349441506275    6.22147673929861   15.79217062703472
C         1.87762544192668    9.13656525844407   12.16029207949163
H         1.73202932057905    9.86786044965825   12.95094150234307
H         0.92307166882868    8.64510129165906   11.95863192461997
H         2.19729588647812    9.64874768328994   11.25509660612505
C         4.97558925705315    5.07687023849627   11.79134364793702
H         5.58644816065760    5.33098694951584   10.92805084857005
H         4.19786107206267    4.38276777579046   11.46716315049428
H         5.60156209377479    4.56444624173920   12.51778568126325
C         3.52475803190288    7.39312077834716   10.14459742517192
H         3.69947636654093    8.40470548604206    9.77746557446835
H         2.51163036945425    7.09721451519456    9.86739318237933
H         4.22971023522558    6.72579026961071    9.65484905547637

