103
CSD_code = MIFJIV | q = 0 | S = 0 | Stoichiometry = C50H48FeN2P2 | MND = 8
Fe        2.24558830194726   11.09643333218164    3.59303507029765
P         0.94252335577049   12.73236249850635    3.22510114671476
P         0.69786745145894    9.81197566907111    2.85582151563843
N         4.96588994080579   13.38610374884652   -4.29257651325324
N         5.93681094856139   12.22518188220679   -7.48570486590845
C         4.27188888068858   10.52292377570854    3.80796946223158
C         3.44239997555466    9.63196818497028    4.53016488399320
C         2.73903706816822   10.38652215230405    5.53097463146331
C         3.14060307802719   11.73894205767152    5.41757693560503
C         4.04445485566421   11.83785970775287    4.31304573094998
C         5.30270326943490   10.16969089567850    2.78558848606794
H         5.14521065240762   10.73703250879332    1.86959987252332
H         5.27388887519017    9.10872300602879    2.55139447379576
H         6.29582306536367   10.41154343674980    3.16627739765007
C         3.45970724199761    8.13989495110220    4.44509209699635
H         2.56362844122951    7.72014421857092    4.89517535359875
H         4.32697637825516    7.74759353569540    4.98038709079831
H         3.51665298739486    7.80307532645157    3.41199863451147
C         1.95380995632153    9.78419633185031    6.65364139498091
H         1.17611987955691    9.11714245252809    6.28290765217178
H         1.48810546140554   10.55773839189557    7.25907990435345
H         2.61402898403702    9.20049467205555    7.29803993942943
C         2.82965926965602   12.82563536320015    6.39607618718995
H         3.24423371819372   13.77186166929575    6.05989863673377
H         3.27736930687941   12.58371499235968    7.36172865597407
H         1.75812330228150   12.94860645417279    6.54427030957697
C         4.78567248580970   13.05120162087270    3.85796225079785
H         4.91843484323670   13.01166508665960    2.77943492120286
H         5.76938316305452   13.10386504553824    4.32770635310735
H         4.23612182606644   13.95915350373510    4.09424717902933
C        -0.24886446876303   12.22583983275022    1.89778637297271
H        -1.07094554869609   12.94464135648971    1.81358670208703
H         0.30014421415009   12.18554701076460    0.95477982526588
C        -0.75007536309725   10.83409205101178    2.26270420348709
H        -1.24441856868206   10.35373931849401    1.41384621132370
H        -1.46826805694133   10.91067242587328    3.08407858590354
C        -0.29845713716976   13.20885022708883    4.49149738192271
C        -0.46963221605956   12.32977575424571    5.55207374012889
H         0.16776002515686   11.45616831290334    5.58952370344507
C        -1.42787310459844   12.57114121279369    6.52031672041246
H        -1.55565573592601   11.88193547591991    7.34341755927410
C        -2.22143967449890   13.70282034510545    6.43051436525926
H        -2.96955184156016   13.90023790418814    7.18437727411252
C        -2.05657835625432   14.58445125680463    5.37301977420486
H        -2.67900455350876   15.46521135728449    5.30535487647226
C        -1.10073211303408   14.34099474738704    4.40337952441669
H        -0.97054905903599   15.02948372586889    3.57913278657914
C         1.52951368819253   14.37048860716927    2.70458989390576
C         1.89730436391931   15.26975261309768    3.70346411907176
H         1.72782667206600   15.00360655284777    4.73837012108273
C         2.45546243675276   16.49172618070094    3.38043586966580
H         2.73453296533031   17.18295181807735    4.16316635675554
C         2.66194603495876   16.82685965053646    2.05159381674735
H         3.10444998853167   17.77873877611487    1.79679452653010
C         2.29931054554120   15.93893702384530    1.05282547183354
H         2.45962156999387   16.19631859246251    0.01584238254062
C         1.73811153107406   14.71564288808609    1.37442912163647
H         1.47071173072128   14.02738310631211    0.58864267188662
C         1.05049980241942    8.80352839861350    1.37086702003036
C         0.05539338360652    8.10318504395912    0.69424489538370
H        -0.96451192814887    8.12612842259417    1.05581641049301
C         0.37185913900960    7.36072028477932   -0.42803881232630
H        -0.40399559194029    6.82227371314595   -0.95359066007504
C         1.68166092151499    7.30305194665285   -0.87925358247796
H         1.92274308139328    6.72548420571287   -1.75986312099317
C         2.67801067459069    7.98178061429558   -0.19803715245058
H         3.70027710960503    7.93486856497317   -0.54483090368500
C         2.36256473748216    8.72670919029711    0.92466489668961
H         3.11720927496703    9.28333074522857    1.45747068087469
C        -0.15357160590804    8.54191165354801    3.86549039197437
C         0.23168606441182    7.20592046287668    3.77035053657795
H         0.96159573901271    6.91369741039873    3.02891478198200
C        -0.32001832661478    6.25013037260291    4.60344462498305
H        -0.01488712050619    5.21772752000615    4.51086519219383
C        -1.25812250403136    6.61308989136706    5.55553931491072
H        -1.68940238964478    5.86666454696988    6.20602226264580
C        -1.63584900503326    7.94038036253107    5.67152636714849
H        -2.36213138485787    8.23280306692712    6.41638861687234
C        -1.08180760769219    8.89742611419461    4.84078964123615
H        -1.37843914880335    9.92946625406469    4.95609288368288
C         2.59881244491855   11.59509969662833    1.81851596641055
C         3.05784237896478   11.93083150800082    0.74410495123744
C         3.55301940636221   12.27102238688320   -0.53004330810795
C         3.20270355405582   11.50923579719101   -1.65154650150393
H         2.54893052219689   10.65690882486053   -1.52137153055008
C         3.68175035470068   11.83736649136960   -2.89793604144627
H         3.38726815429900   11.25751549433433   -3.76175335383979
C         4.51087389220443   12.95407058061236   -3.06990064927449
C         4.83562353958225   13.73246162496733   -1.95136273531143
H         5.47212011372349   14.59352167465166   -2.09193980689818
C         4.38247684172468   13.38679253867482   -0.70117028778283
H         4.64564679446003   13.98264403013688    0.16240443520205
C         5.23937081266320   12.60392035147875   -5.25735390171352
H         5.21518567150930   11.51066934390309   -5.19080011763198
C         5.64771886513546   13.12899050310319   -6.54758024455412
C         5.72820774921190   14.50541718605190   -6.78563693518242
H         5.48189642144108   15.18687570659779   -5.98767567884361
C         6.12147352902241   14.94021371473018   -8.03557439797300
H         6.19465334822298   15.99634768217238   -8.25459994618332
C         6.42100363008096   13.99613021382777   -9.00874282578996
H         6.73137477156744   14.29271645881662   -9.99878797154526
C         6.31037339774248   12.65343871691274   -8.67465429962966
H         6.53294355839922   11.87917609181643   -9.39852785198640

