42
CSD_code = MIFJAM | q = 1 | S = 0 | Stoichiometry = C16H20N5Pd(1+) | MND = 4
Pd        6.59318799020010    3.36151906204966    0.87516242778813
C         5.05105149511346    4.65510039518338    0.47772919553815
N         8.16349177597965    1.85303231385240    1.24793690268117
C         9.43408711009417    2.15290212999932    1.00598303599249
N         8.95544315837465    3.76819011873383   -0.74027690403934
C         9.66309805527652    3.56675178723402    0.50670825114866
C         7.60556539767807    3.76451281163682   -0.84848688212779
N         7.35230061404067    3.88013151900865   -2.16100247346139
C         6.04622045305590    3.89938590412810   -2.76557614510992
C         8.52146210160296    3.97059513934680   -2.86814661777894
C         9.53494807908817    3.89134101825702   -1.97360938553285
C        10.44063633764381    1.21586758159168    1.18886757800233
C        10.09057984566820   -0.04822086262522    1.64223718963033
C         7.80992692565396    0.64594269930632    1.67496647373277
C         8.75767531941210   -0.34341062892433    1.89235296935390
N         5.86181889067018    1.42896146543831    2.88899459809053
C         6.32105080368404    0.46600993573163    1.91141591541733
C         5.84371428670756    2.76320502194905    2.66528386997015
N         5.49867917376310    3.31959783244803    3.83587649888706
C         5.40148668400753    4.73308612407250    4.09233595917941
C         5.27966915867205    2.35022268282551    4.77876106318099
C         5.51798002177462    1.15645943717757    4.18526427002451
H         4.27060525289905    4.06004234695954   -0.02029274366845
H         5.35439826391288    5.47020030483648   -0.18480300499014
H         4.60393601427836    5.09094293458108    1.37283990305809
H        10.72536732826204    3.76406496287860    0.35645929484344
H         9.25957156990941    4.26857484641255    1.25685350811850
H         6.04654867637605    3.28515295276158   -3.66557747211026
H         5.76231030408227    4.91832565612914   -3.03506816906926
H         5.32271072914267    3.50138984727040   -2.05325652176463
H         8.54273603843120    4.07812997933243   -3.93277112862075
H        10.59499080130253    3.92167547491654   -2.11830511216343
H        11.46991341394240    1.46571482133941    0.98791112213299
H        10.85061326428532   -0.79755412634124    1.79812503180209
H         8.46514219390111   -1.32008314490102    2.24289265926747
H         6.09807033657137   -0.54322170935653    2.26014352649747
H         5.79413050517845    0.65272406042157    0.95974018320708
H         4.35678294386579    5.04684175873276    4.13428547693035
H         5.87632429401584    4.96972556861247    5.04419207842993
H         5.91100710680023    5.27098068781940    3.28947060836956
H         4.98154666796461    2.58058488120268    5.78051821698315
H         5.46172061671589    0.16170440798684    4.57626475217954

