47
CSD_code = MIFLIW | q = 0 | S = 0 | Stoichiometry = C16H22BCuN6O | MND = 4
Cu        8.07042192160869    0.82335474563835   16.38382718050846
C         7.19161035969159    0.80961070261827   17.88663186281874
O         6.61011891778441    0.79932902644128   18.87663976085889
B         9.63786073186332    0.84655336269543   13.69912863173507
H        10.23125959570394    0.85539978706335   12.68151380583078
N         8.29077121010764    0.11271923627540   13.57359088926881
N         7.48593014837277    0.01248081234676   14.64092886932162
C         6.39578792657022   -0.65548980171451   14.28672770969655
C         5.28631881605206   -0.95011014438881   15.23015540601684
H         5.51079617931550   -0.52382564158383   16.20588478262010
H         5.15266036321863   -2.02614861388330   15.33442830917536
H         4.35280322834575   -0.52657815047107   14.86206568632148
C         6.50125750867875   -1.00048399470701   12.93624331300837
H         5.78818842177286   -1.54262625345338   12.34882431896083
C         7.71974354300471   -0.49437641713915   12.51917410549198
C         8.34511812871231   -0.57000685915323   11.17289951028541
H         8.51869369910433    0.42770299198487   10.77323311113559
H         7.68909408802053   -1.11144222257465   10.49648029190277
H         9.30326324148261   -1.08451793398150   11.22281817290913
N         9.32656902504480    2.26933681795708   14.19664171994268
N         8.65676767376293    2.43973953285433   15.34520639590652
C         8.51168755869624    3.74079075609568   15.56059353508184
C         7.80518893206704    4.28852457201270   16.74749374407957
H         6.86404931325768    4.75033834228128   16.44839844762678
H         8.41542333082800    5.04666122073030   17.23609603346042
H         7.59363372692917    3.48625509485863   17.45215940329399
C         9.11264933658394    4.43831584320487   14.50893711029754
H         9.16942918939079    5.50082704732627   14.38528931441864
C         9.61914301308960    3.46750028669173   13.66275238730726
C        10.36038243787027    3.64257843217875   12.38634535266752
H        11.34884571084413    3.19086499174662   12.45110377981617
H        10.47052158757054    4.70218094007542   12.17145755929589
H         9.82667295120600    3.16910446210186   11.56399802911171
N        10.42579296334060    0.14481930563366   14.81949681061042
N         9.89220178072156    0.04408614553946   16.04508993979915
C        10.75178025519416   -0.59385829770947   16.82876612407638
C        10.48096334648424   -0.87917665806928   18.26161370310291
H         9.49275865006549   -0.51042590203639   18.52929185834936
H        11.22453181003665   -0.39330391901870   18.89222867888606
H        10.52492625142307   -1.95104452868726   18.44990594261231
C        11.88598696387192   -0.91802607531646   16.07872812847251
H        12.76085538433610   -1.43452712082285   16.41824613979082
C        11.63996987717584   -0.43141004729077   14.80695786757423
C        12.50883788094870   -0.49646516431475   13.60275555390269
H        12.01039306332500   -1.03422694880486   12.79799232933913
H        13.43483408217421   -1.00932409335057   13.84879490898849
H        12.74390587434593    0.50432033211653   13.24436348432126

