56
CSD_code = MIFMAP | q = 0 | S = 0 | Stoichiometry = C26H27ClPRh | MND = 6
Rh       10.15409422386380    0.87856165858160    1.84464601023461
Cl       10.16164024991015    3.04644541526112    2.49417874016149
P         9.61013260436891    1.82050382843258   -0.13886918384472
C         9.38568696978681   -1.04414456167906    1.42536287875491
C        10.75605526360476   -1.04386645966506    1.15830266568227
C        11.39739828319171    0.33656591185284    3.52973011795367
C        10.08261235135351    0.12074857211620    3.88790291420607
C         9.44935820026468   -1.25006388294547    3.96849032757455
C         8.74453071326909   -1.64430560683516    2.65627300455280
C        11.78013855423991   -1.70974544775968    2.05429818579295
C        12.36757177502111   -0.73709291879920    3.09580870908940
C         8.19459351470260    2.94802636262537    0.06570543580356
C         8.06393174708045    4.18921860130517   -0.53923825012857
C         6.94236378153663    4.96185409024217   -0.28652196620786
C         5.95238035484356    4.50355809113035    0.56502466287023
C         6.08706481618692    3.27050566681371    1.18482778323920
C         7.20618066374675    2.50000927651970    0.94042250782150
C         9.06368260452337    0.78215249439582   -1.54398886256376
C         7.72178997467716    0.54448231144210   -1.81809147675678
C         7.36122733811136   -0.31963706471193   -2.83732513062124
C         8.33439643835059   -0.96196889303408   -3.58399493390750
C         9.67442470434329   -0.73813726926549   -3.30971837999721
C        10.03658165341010    0.12456912661541   -2.29320143136834
C        10.91499126087522    2.78789411313919   -0.95508506434660
C        12.11588710457899    2.98346707597660   -0.28387844206490
C        13.13507323940883    3.70539834918393   -0.87903972789705
C        12.96106317158238    4.22893391344023   -2.14929883398393
C        11.77293440675266    4.01726359061070   -2.83171517940669
C        10.75279932203705    3.29356348016051   -2.24281002518321
H         8.84228102858741    4.56580872319166   -1.18637315820568
H         6.84670373664540    5.93208199248896   -0.75231877068002
H         5.08241778052695    5.11342597008677    0.76003528762973
H         5.32524249769897    2.92066627066816    1.86641451765868
H         7.34769943983077    1.54785935431029    1.44761408256451
H         6.95861283043683    1.04405786475777   -1.23738092464360
H         6.31589959837611   -0.49267838856421   -3.04870513976172
H         8.05016746669705   -1.63635740421177   -4.37817715011191
H        10.43634643059328   -1.23841612008006   -3.88974111194693
H        11.08196155170736    0.30799886305585   -2.08042971675019
H        12.23427458018294    2.56838771786560    0.71149732881096
H        14.06577930027911    3.85990745472078   -0.35321408253512
H        13.75402828027112    4.79653189631161   -2.61405247342179
H        11.64352061521206    4.41559606006831   -3.82788329487081
H         9.83524444800897    3.10573537363858   -2.78489300482805
H         8.71456484550471   -1.25479330972247    4.77624613782802
H        10.21573548106052   -1.98244568060852    4.22534025342249
H         8.71770814605657   -2.73543192713804    2.55625277167418
H         7.70688834328594   -1.30117479450315    2.69536526848680
H        12.59541662840229   -2.09415276565718    1.43784819875563
H        11.31987102799322   -2.56730436283813    2.54712891428223
H        12.70898534671250   -1.29115752172022    3.97721535792038
H        13.24341278521816   -0.24511096928082    2.66467667375215
H         8.71052430433669   -1.01295736612446    0.56720432025783
H        11.05164410053450   -0.97858141144270    0.11099241680120
H        11.87295813961805    1.25658690582118    3.86980479708623
H         9.58192598045122    0.89905774970387    4.46393544536395

