69
CSD_code = MIFNOE | q = 0 | S = 0 | Stoichiometry = C32H20CrF10O4P2 | MND = 6
Cr       -0.00025495764341    0.00006417612265    0.00006835570266
P        -0.13212816839550   -1.12797092810423   -2.00351985138153
O         2.98138194812056    0.39394183137213    0.04855326543233
O         0.19218358126856    2.75659408634011   -1.18289963369577
F         1.63611376197675   -2.68722291045382   -3.51012386906536
F         2.31639082995468   -2.00510256929937   -1.57087947761446
F         2.03415448118497   -0.39100376396980   -4.63164116155523
F         3.59644508895085   -0.41244352129446   -3.15838487771296
F         1.79186741337301    0.70762261566952   -2.79860149609723
C         1.84779792726526    0.19485076304269    0.05345354306170
C         0.05031476339306    1.69774513201220   -0.75621534069128
C        -0.89693512596778   -2.77809089506397   -1.97085558623939
C        -2.26817521290815   -2.84212747601754   -2.21795934337395
H        -2.79808496033118   -1.94733531343610   -2.51962459872117
C        -2.94259134311121   -4.03989263569436   -2.07995325936741
H        -4.00353246146331   -4.08444724332475   -2.27558691112476
C        -2.25796740486472   -5.17865227757326   -1.68587774537644
H        -2.78520370947208   -6.11467297973704   -1.57810185996471
C        -0.90029842442810   -5.11480928663509   -1.42030244387529
H        -0.36902944715569   -5.99915012385932   -1.10195573184365
C        -0.21794067905195   -3.91824509527366   -1.54766163038303
H         0.83659253003146   -3.88030744918014   -1.31632028483011
C        -0.83957563403935   -0.49119647625957   -3.56056406256226
C        -1.44922377434760    0.75785301973985   -3.54884586348768
H        -1.47757618936326    1.32302073206221   -2.62682974406347
C        -2.01950202505333    1.26087292955603   -4.70523763961705
H        -2.48964718082494    2.23260277324351   -4.69369563782229
C        -1.98549103138735    0.51691803483849   -5.87266910364342
H        -2.42499528064395    0.91122798519340   -6.77657169043722
C        -1.39638835112585   -0.73827439210665   -5.88212364044771
H        -1.38020194850602   -1.32185926254927   -6.79011198504059
C        -0.83087459430044   -1.25147708998823   -4.73052660947980
H        -0.38725654884931   -2.23701132297848   -4.73801790242829
C         1.59040142405304   -1.63466302968845   -2.66110260043489
C         2.27861274230364   -0.43132136703658   -3.32200784575522
P         0.13171148088037    1.12812816608164    2.00347012555522
C         0.89678199171225    2.77812079386184    1.97082328992400
C         2.26802208997380    2.84202929761088    2.21798417001640
H         2.79786788848178    1.94716710126787    2.51955469712957
C         2.94251510733055    4.03977309757733    2.08019078707263
H         4.00345337894305    4.08423194902410    2.27585493226371
C         2.25796808275675    5.17863458261805    1.68627748964279
H         2.78526310870706    6.11464276434884    1.57867898524770
C         0.90031133667959    5.11490761290520    1.42060169938129
H         0.36911157516548    5.99933416749994    1.10238133370684
C         0.21788492136166    3.91836351433485    1.54772948435419
H        -0.83663887291758    3.88048497108488    1.31633061287995
C         0.83954539178743    0.49114746299079    3.56028229330854
C         1.44917210325603   -0.75791864252457    3.54828927222312
H         1.47741509977167   -1.32291860602962    2.62618402546169
C         2.01957797648799   -1.26117985577962    4.70451141640089
H         2.48966909526590   -2.23293208389877    4.69272758484821
C         1.98579362643842   -0.51740598247231    5.87206257057617
H         2.42544504747337   -0.91186579616318    6.77582819463282
C         1.39679704295592    0.73782675366090    5.88177659469194
H         1.38082137827137    1.32128761440972    6.78984875274643
C         0.83109299414295    1.25124437073449    4.73035838359498
H         0.38747989740182    2.23677535837853    4.73813034761444
C        -1.59060777584046    1.63491860515635    2.66145852463874
F        -1.63597649502116    2.68735828926689    3.51065847291664
F        -2.31681110406438    2.00560811849933    1.57148660743590
C        -2.27873457485474    0.43150011857675    3.32232655353137
F        -2.03440403197914    0.39119842118747    4.63197453305561
F        -3.59653358702992    0.41243694844724    3.15854656810644
F        -1.79179311419044   -0.70739809029794    2.79893415164117
C        -1.84843900341220   -0.19421777711383   -0.05320442779210
O        -2.98205667172757   -0.39291125771548   -0.04852985359682
C        -0.05037236953143   -1.69759132923002    0.75646373406065
O        -0.19071505332234   -2.75681732796661    1.18270235667858

