35
CSD_code = MIFNUK | q = 0 | S = 0 | Stoichiometry = C15H15ClCuN3 | MND = 4
Cu        7.17473978334855    5.63930856717756    7.27066913549505
Cl        7.17496957517451    6.88525638289492    5.32349792865163
N         8.85419157356527    4.57203696307672    7.14623600396492
C         9.25080409389910    3.69455871017914    8.06414442021715
H         8.60372039520437    3.57189404775357    8.92190672227972
C        10.42099064775565    2.96726669988136    7.95065526996815
H        10.70181340842585    2.26604025044221    8.72128339750040
C        11.21874224475371    3.15911647253204    6.83188081741751
H        12.13936029432365    2.60752420597654    6.71071710208522
C        10.80479287365281    4.07405916496646    5.87602735902994
H        11.39206810986473    4.25689580656191    4.99016404980927
C         9.61766761617310    4.75780134625575    6.07221148827481
H         9.24952917979724    5.48121000833153    5.35637781484873
N         7.17458175583530    7.01983019297380    8.70956401432545
C         7.17447553624913    6.74242384416439   10.01063022241674
H         7.17464949532941    5.69451759893385   10.27786967366333
C         7.17416931096091    7.72172594792745   10.98640721529970
H         7.17409393584505    7.44868618899463   12.03038386916989
C         7.17396682302950    9.05263153265501   10.59452639893575
H         7.17372351971479    9.84335433372334   11.33019568034307
C         7.17408617688605    9.34068273088157    9.23838948417477
H         7.17394252068999   10.36006548351161    8.88633866253698
C         7.17439527402080    8.29562285666572    8.33114328630480
H         7.17449653806207    8.46598365837359    7.26235767040674
N         5.49519992085510    4.57208039495605    7.14629519868628
C         5.09853938243613    3.69469060285040    8.06426513620822
H         5.74572733656606    3.57188909677451    8.92192936576413
C         3.92818381181908    2.96764164273038    7.95095116552609
H         3.64732619800061    2.26647737088125    8.72162297666861
C         3.13031179913779    3.15964893201909    6.83229008710274
H         2.20955974735169    2.60825019989173    6.71126383932360
C         3.54431737060340    4.07449105662078    5.87636638345269
H         2.95695743714531    4.25743871616836    4.99058227702790
C         4.73161278786759    4.75798785609195    6.07237553890315
H         5.09979352565549    5.48131113618096    5.35648034421629

