43
CSD_code = MIFRIF | q = 0 | S = 0 | Stoichiometry = C16H16Cl2FeN6S2 | MND = 6
Fe        0.00033530724467    3.92394472308300    9.77101511726894
Cl        6.19192770586473    4.20036088392982    8.12252770582036
S         2.61673378226150    6.51204750704490   12.36965415455934
N         1.81311557035852    3.92631758105456    9.11757094041378
N         0.81484840895448    2.32657709024461   10.92065938397420
H         0.34715991431761    2.19610316974562   11.81305485421428
N         0.55338423347042    5.23314011896958   11.05856763941278
C         2.23706309211719    4.58340905210428    8.03595616347459
H         1.45652119144286    5.04939368275976    7.45438598232161
C         3.56638803636017    4.70105562358735    7.68556313737744
H         3.85573298713578    5.25374993381896    6.80748448737192
C         4.51969574248771    4.10069207212142    8.49961780833216
C         4.09517152021228    3.41473307331672    9.63148261561085
H         4.80841122397420    2.95315994941167   10.29522771408438
C         2.74205000350235    3.35902595227605    9.90796361334577
C         2.21367164659285    2.68769840599228   11.14805971428392
H         2.82893709050132    1.81952696595056   11.42092875170663
H         2.25524703276495    3.41615615708225   11.96236633773957
C         0.68321677451174    1.11556431030251   10.10740760700678
H         0.81649669767868    0.20263353604100   10.70233797841163
H         1.45979124674497    1.14256493210809    9.33856298497419
C         1.44439447028571    5.80967603253264   11.56652577413024
Cl       -6.19116521616435    4.20390507698029   11.41971481670801
N        -1.81257511990120    3.92598665391569   10.42492730483097
N        -0.81534085660052    2.32792773444223    8.61943660664186
H        -0.34822482384051    2.19903055015331    7.72651656592315
C        -2.23593358302460    4.58254443309998   11.50709864871217
H        -1.45497236777697    5.04741984986529   12.08900681233763
C        -3.56515110544920    4.70128394360779   11.85748056824348
H        -3.85400625294058    5.25360021722991   12.73595885584919
C        -4.51900114999587    4.10265410181205   11.04277626343926
C        -4.09506164702554    3.41699887827331    9.91053978038597
H        -4.80866807520460    2.95662944217060    9.24635747141372
C        -2.74193731423934    3.36006922506929    9.63414440273073
C        -2.21443672341637    2.68897544910825    8.39353940734755
H        -2.82979886831451    1.82071469336927    8.12117906727707
H        -2.25723279254360    3.41745641121674    7.57929345657385
C        -0.68287880803860    1.11568205030409    9.43071346475631
H        -0.81557914020610    0.20364570859749    8.83428417755086
H        -1.45945323678861    1.14093385363135   10.19961679296319
S        -2.62095680117238    6.49770365049772    7.16593794154716
N        -0.55237110865292    5.23552560135413    8.48550409358054
C        -1.44554868748720    5.80438172182257    7.97275303535261

