43
CSD_code = MIFROL | q = 0 | S = 0 | Stoichiometry = C16H16Cl2FeN6Se2 | MND = 6
Se        2.70135493372399    3.01704449066347    0.44756856151923
Fe       -0.00012350621040    5.38557678715001    3.34820898591071
Cl       -6.21575693824965    4.94033229999715    1.81949074625747
N        -1.82846382974371    5.37776019799064    2.69680497145878
N        -0.81971311852511    6.97145397353731    4.49546428895689
H        -0.35408691970891    7.10623480912821    5.38891469644911
N         0.56580808073495    4.08562182588315    2.08239753477412
C        -2.25499897612916    4.70190904166296    1.62899519958698
H        -1.47698715551500    4.25956547807529    1.02630556881827
C        -3.58807171223027    4.53690255649194    1.31278678866770
H        -3.87968014599788    3.96884325242166    0.44540593024004
C        -4.54066949624058    5.10706082748321    2.14927959578915
C        -4.11157549250433    5.81795553616262    3.26345088818881
H        -4.82240447454466    6.25905514874847    3.94331340561748
C        -2.75382304228543    5.92293419792900    3.50470380372862
C        -2.22342957533545    6.62718321831380    4.72511669350194
H        -2.83093684641796    7.50985230392124    4.96538088924850
H        -2.28418080993328    5.92990051807701    5.56561067197577
C        -0.68496529619507    8.18268849924017    3.68115665985624
H        -0.82443980914271    9.09483358281197    4.27518271270255
H        -1.45602564653101    8.15315981351265    2.90696676815595
C         1.42788574857084    3.60097713224769    1.45569117076594
Cl        6.21525669295894    4.94197900452853    4.87906805493073
N         1.82811331533088    5.37734878260339    3.99958257231213
N         0.81971264364738    6.97142074258267    2.20116795796027
H         0.35425768593214    7.10610798189399    1.30761076316283
C         2.25448524446283    4.70113780380511    5.06724872266740
H         1.47638846805577    4.25819366795309    5.66938729806325
C         3.58748660663586    4.53661448880416    5.38402096022736
H         3.87899998202392    3.96821116144019    6.25121253381734
C         4.54026194777614    5.10772619855953    4.54839765997820
C         4.11136506830451    5.81879962529018    3.43421436959660
H         4.82236173605301    6.26050671684500    2.75493077032446
C         2.75369778651295    5.92309295115445    3.19231143419926
C         2.22352325201190    6.62722832343926    1.97169854220109
H         2.83098392443957    7.50992678203037    1.73149867012458
H         2.28444283259929    5.92979333640796    1.13136615436782
C         0.68488259661176    8.18265965103573    3.01535174051517
H         0.82434787973561    9.09483061256208    2.42132261445938
H         1.45592769678560    8.15327455420352    3.78957376615869
Se       -2.70016757886293    3.01958091763145    6.25124377898291
N        -0.56513617307518    4.08476237905873    4.61347946341046
C        -1.42590757953304    3.60095882672325    5.24261564037116

