49
CSD_code = MIFSAY | q = 0 | S = 0 | Stoichiometry = C16H22B2Cl2FeN6 | MND = 6
Fe        7.59094514978531    4.56951829664887    3.45433288525043
Cl        1.71967441640360    3.74401728698884    1.03973381278416
N         6.91662654486914    3.03986772420163    4.68398788035659
H         7.18152617003084    3.20621541900511    5.65120646465731
N         5.84277788090246    4.46195813726868    2.69429347638928
N         6.95303532298757    5.78994804408579    4.71408020450363
C         3.70554438398402    3.39377705165760    2.83756761602002
H         3.04125353737496    2.73065224793780    3.36794794154844
C         5.45267617262402    3.05612452670793    4.61728035288303
H         5.09328271363805    3.72440692306893    5.41500600264656
H         5.02316139200711    2.05963867632998    4.77987589044588
C         3.29195170261348    4.02767922252789    1.67251215977673
C         7.55008980855718    1.80689947776120    4.21746180842928
H         7.00576021389108    0.91485939465938    4.55579796226626
H         8.56102037790948    1.76727602114545    4.62908403835702
B         5.58910794411397    6.00574506973777    7.02409908509588
H         5.21174363668870    7.08418355330100    7.35442071597131
H         6.35010743290785    5.51363611683377    7.81975387190405
H         4.66211158100780    5.25438871189603    6.78936800672331
C         6.37161346052999    6.02071640242450    5.69053217234664
C         5.42524089407315    5.07787788270591    1.58458067066516
H         6.14192990298370    5.74596681476203    1.13332766186240
C         4.17249083433499    4.89630946603197    1.03661053782615
H         3.88503639855443    5.42043046318645    0.14082246503810
C         4.97883034608922    3.64252064298336    3.31971116416034
Cl       13.46103216019239    3.74133695326649    5.87051434350866
N         8.26541173810303    3.04062152532437    2.22391215461427
H         8.00066970278178    3.20756783958208    1.25674795465351
N         9.33894651423558    4.46167443416119    4.21446456670130
C        11.47591495927383    3.39293575827023    4.07147205535534
H        12.14023384664576    2.72990121028201    3.54101194773812
C         9.72935609096715    3.05684885551399    2.29084238978825
H        10.08880903474622    3.72560470140909    1.49357880044428
H        10.15889575809810    2.06047202982490    2.12766309325410
C        11.88917140674077    4.02598220945436    5.23712102728812
C         7.63190549621227    1.80738152892649    2.68963680948827
H         8.17620450977531    0.91553034501993    2.35075481180492
H         6.62097753530870    1.76805846294394    2.27798698224172
C         9.75620465850383    5.07684387776746    5.32470148043978
H         9.03952345167594    5.74492644712029    5.77598927316236
C        11.00863408856828    4.89453651317671    5.87312382010102
H        11.29585397014879    5.41800142995334    6.76936760185995
C        10.20294133923460    3.64237260009473    3.58891012653638
N         8.22860689262634    5.79052016724374    2.19499766168081
B         9.58970869420487    6.00390552267828   -0.11688349493787
H         9.96153011483847    7.08268896824105   -0.45207221633962
H         8.82900868300749    5.50553638728147   -0.90909496405373
H        10.52045060522100    5.25753407211314    0.11846024151728
C         8.80947053002039    6.02060458654440    1.21799868522046

