49
CSD_code = MIFSEC | q = 0 | S = 0 | Stoichiometry = C16H22B2Cl2FeN6 | MND = 6
Fe        7.99461453153010    5.40326126909724   10.15655638079195
Cl        1.85636489386657    5.32957607635228    8.24321593758817
N         6.19684777418830    5.42238704775051    9.42836418334886
N         7.15429592791389    6.98727894299033   11.29124399859872
H         7.58899459753014    7.11619735136587   12.20078606281747
N         8.59157218512551    4.14277219628034    8.92551615210883
C         5.79906289947860    4.82634213207632    8.30157224270741
H         6.58213397333406    4.36562348735986    7.71966084132712
C         4.48286253999769    4.76882960043725    7.89100511121747
H         4.21649073574758    4.26797003108167    6.97555932316532
C         7.30668486612054    8.20101427369864   10.48427614913162
H         7.16824364688387    9.11269284271192   11.07936181507347
H         6.54249725008086    8.18191114500711    9.70286487896208
C         5.74757836135955    6.62527594968603   11.47215279067340
H         5.12968615637884    7.49078828452443   11.74682169452818
H         5.67715579767341    5.87677742288946   12.27325734032970
B         9.85273090360891    3.44291707129985    6.65168490838835
H         9.04707798267053    3.63118972826835    5.77973007290778
H        10.31632326627838    2.34630619303914    6.62643587951727
H        10.71603979202187    4.29987050158063    6.64059541475181
C         9.11784916908566    3.72212811550600    7.98238681389609
C         5.25387602653688    5.99370416644195   10.20094850488071
C         3.91198751630629    5.99077120260104    9.86549475717313
H         3.18688603396650    6.45448154486027   10.51461431090377
C         3.51394576640945    5.36291217874736    8.69156233728919
Cl       14.13198714046512    5.32910234470304   12.07217388640722
N         9.79203979985004    5.42218802856989   10.88510879349108
N         8.83550717008119    6.98677536525430    9.02149464960716
H         8.40110898471626    7.11505987744770    8.11172205541219
C        10.18925240102889    4.82653944860298   12.01231868432337
H         9.40586982086100    4.36611875311822   12.59404114752118
C        11.50524742291858    4.76899680645101   12.42349946571986
H        11.77111878878393    4.26853720136738   13.33930965551924
C         8.68282884933123    8.20099552660204    9.82765677868495
H         8.82100330671240    9.11231555164202    9.23195821141750
H         9.44704508613515    8.18261613731880   10.60905954829097
C        10.24228465418416    6.62460999301079    8.84127535115866
H        10.86036459968126    7.49005927973585    8.56682961247494
H        10.31295246359982    5.87615032959673    8.04004240496243
C        10.73540313734476    5.99312982130206   10.11272161569609
C        12.07716405014717    5.99004518550753   10.44875336117028
H        12.80261573296368    6.45341344370424    9.79978320455200
C        12.47460309047418    5.36255355155566   11.62308122947657
N         7.39713978707237    4.14278761334152   11.38733670291955
B         6.13344813531165    3.44179755027246   13.65941415014669
H         6.93346568367583    3.64883578202534   14.53255271637174
H         5.68616708426431    2.33869984516332   13.69190906274728
H         5.25775190649983    4.28593396361103   13.66100060971197
C         6.87012830975975    3.72155984445030   12.32978920013611

