83
CSD_code = MIFSUQ | q = 0 | S = 0 | Stoichiometry = C44H30Cl2N6Pd | MND = 4
Pd        0.00004045254810    0.00000527427539   -0.00003574911386
Cl        0.13661056833444    4.22097703928950    5.61793820223328
N        -1.20982449504929    0.15953261677556    1.59095087702217
N        -2.03720078991251   -0.78032622748730    1.88154199631372
N        -1.78738238625381   -0.36246560778710   -0.94735337413501
C        -2.62742966746635   -1.53242412255425    0.96565170391465
C        -2.68222396785689   -1.18687096957333   -0.44189671586322
C        -3.84464191473462   -1.64508135400636   -1.14904231994026
H        -4.05121710549483   -1.21281184075233   -2.11571083499304
C        -4.66573145177311   -2.59195825983188   -0.64233466405974
H        -5.51456451661791   -2.93476005577869   -1.21742040259028
C        -4.45145768255881   -3.16276779405558    0.64700169238027
C        -3.44909250709366   -2.60434746496487    1.46625304211393
C        -5.23646066631856   -4.21277407881453    1.13901900860085
H        -6.00211329437160   -4.63547879160367    0.50396123926827
C        -5.03770304074488   -4.69900779433199    2.40945837879572
H        -5.64473508710008   -5.51091160988701    2.78176049768185
C        -4.05325947051991   -4.13891820683933    3.22372569524338
H        -3.90542089497605   -4.52293173145879    4.22252796767027
C        -3.26994288874851   -3.10822984576876    2.76000056621043
H        -2.49890338661047   -2.67451541306358    3.37845101113388
C        -0.93573180879232    1.08910516825964    2.57267329199255
C        -0.31460643505363    2.28172085685761    2.17549323739345
H        -0.09969263357908    2.44024685355079    1.11513604224658
C         0.00989967529960    3.24493588032602    3.10615143009982
H         0.49257721224142    4.16174170751591    2.80449888048020
C        -0.29081423181578    3.02623112977004    4.44393230786468
C        -0.93286975626561    1.86474236956833    4.85128926992874
H        -1.16685892213045    1.71833273797740    5.89407679802463
C        -1.26349708538191    0.90438386329415    3.92054801895811
H        -1.75733058653635   -0.00781404365625    4.21507980092058
C        -1.77964507993932    0.19967326851100   -2.21768724715571
C        -2.07761844774001   -0.48491283385326   -3.39949631516510
H        -2.35028281803830   -1.52864112529781   -3.36847155499202
C        -1.93672331740456    0.14574694073439   -4.62150562194772
H        -2.15599135511277   -0.40354543489408   -5.52511627751478
C        -1.50307723623533    1.45777626691518   -4.69640107368565
H        -1.39350367322828    1.93952901556059   -5.65598662873139
C        -1.19049099471595    2.14365040869714   -3.53198891455524
C        -1.32198141139318    1.52405167027743   -2.30726111701809
H        -1.07775238829510    2.05702971342225   -1.38272213670828
H        -0.83555454840324    3.16270703539541   -3.58228964050796
Cl       -0.13711980545092   -4.22052335634670   -5.61835922743023
N         1.20992338596316   -0.15965261480025   -1.59098985701204
N         2.03731380250631    0.78020383331804   -1.88155094715006
N         1.78746171873858    0.36230841882501    0.94735645865270
C         2.62757997884897    1.53224186582857   -0.96563606021263
C         2.68234292788733    1.18667287449945    0.44190737720116
C         3.84476692840823    1.64483833665864    1.14907500199094
H         4.05133026645990    1.21252586185298    2.11572816693130
C         4.66588538137062    2.59170380488831    0.64239198690426
H         5.51473071432697    2.93446397308520    1.21748502123626
C         4.45162947025090    3.16255007326675   -0.64693307423140
C         3.44926661741161    2.60416055934653   -1.46620726329439
C         5.23663853016690    4.21256923316610   -1.13891473477895
H         6.00228346228318    4.63525875147953   -0.50383726742665
C         5.03788353103765    4.69885029681478   -2.40933736374026
H         5.64490803478249    5.51077558042753   -2.78160555874938
C         4.05344503606872    4.13878725775538   -3.22362832437562
H         3.90559956896429    4.52284328784428   -4.22241347864323
C         3.27012828414168    3.10808244032975   -2.75994081675986
H         2.49907945277853    2.67440042538451   -3.37840185941112
C         0.93571309371778   -1.08910699847743   -2.57279743768772
C         0.31460549525487   -2.28176076497024   -2.17570076173645
H         0.09982949202161   -2.44042635479818   -1.11533610127094
C        -0.01004525767994   -3.24483927709292   -3.10645099189837
H        -0.49271343383717   -4.16167196974417   -2.80486577284767
C         0.29050825668284   -3.02596095878609   -4.44423986392926
C         0.93255745201497   -1.86444116068522   -4.85151781283796
H         1.16642312878776   -1.71789760936384   -5.89431396882752
C         1.26332903002221   -0.90421945906652   -3.92068636342075
H         1.75715653735583    0.00800134126465   -4.21515660681086
C         1.77964810576399   -0.19970075612213    2.21774870851247
C         2.07756708439330    0.48503020165409    3.39948881774420
H         2.35025363880513    1.52874978114711    3.36834059098614
C         1.93659136095380   -0.14547113110135    4.62156982037102
H         2.15580250471515    0.40393568322522    5.52512504271418
C         1.50293126957116   -1.45748862108580    4.69660290217913
H         1.39329351368040   -1.93911793028581    5.65624345587683
C         1.19041472199669   -2.14350998085580    3.53225878872105
C         1.32197918969219   -1.52406827764438    2.30745846334131
H         1.07780786332221   -2.05716341264432    1.38296954057735
H         0.83546970166257   -3.16255845889873    3.58267100273010

