57
CSD_code = MIFYOR | q = 1 | S = 0 | Stoichiometry = C24H23N3O5ReS(1+) | MND = 6
Re       -0.47289435398506    2.83713279992427    1.08475086145247
S         1.12842289007974    3.85413509796239    3.53100289145271
O        -1.27199196628643    0.42486366492706    2.84023409185104
O        -1.24970761320915    1.40830832310779   -1.53539690692150
O         2.39449474737461    1.67379849816779    0.97063466221900
O         0.83278676722257    2.48542722660373    3.84039214954757
O         2.04895647554059    4.09467310094691    2.45965264014375
N         0.21155729555720    4.70983723510964    0.20061235012187
N        -0.36445489969828    4.45066597923522    2.87374202545159
N        -2.47483494304622    3.70517836872930    1.43105044559540
C        -0.99071930585265    1.28140341958927    2.14846833855388
C        -0.94154748468942    1.90502544598075   -0.54754197723562
C         1.35618242702282    2.12365962398015    0.98458005711209
C         0.70531471176983    4.73682818995633   -1.04107766880927
H         0.55221537041284    3.84637509126603   -1.63570852281917
C         1.38014259998323    5.82156876380845   -1.56625141319842
H         1.76109300910494    5.78156159168792   -2.57310856030673
C         1.56112454628057    6.94374933177984   -0.77238020107037
H         2.09151913756437    7.80805331566232   -1.13939181249182
C         1.04132239417019    6.92684203032823    0.50899380454036
H         1.14525644604175    7.78194182527773    1.15934051231622
C         0.37728523756662    5.79400865220951    0.96250613566054
C        -0.23685140508354    5.79745085105351    2.34277753607943
H        -1.23454756173613    6.25126899378282    2.26243148995844
H         0.35295667046815    6.42988213471088    3.02038400486587
C        -1.58654270011957    4.22422294972397    3.62191245342624
H        -1.75339327564473    4.99384200246092    4.38885434044735
H        -1.49393341366928    3.24916487015007    4.11411446571881
C        -2.74669686540056    4.18058121439646    2.65262790243502
C        -4.01069418511668    4.62105742676615    3.01366877839463
H        -4.18511546784421    4.99320543455606    4.01106677033549
C        -5.03542742150879    4.56786566585374    2.08286454287448
H        -6.02951791404719    4.89556282736711    2.34229623090174
C        -4.74775145750139    4.09152870991823    0.81312024308126
H        -5.50806453581827    4.03870880372267    0.05174881651942
C        -3.46024233012486    3.67110620178771    0.53295534874107
H        -3.20460185837448    3.28635768966362   -0.44448468629301
C         1.47963758661549    4.87052835488298    4.97231731426918
C         0.83952627193139    4.60113414437678    6.18618598291507
C         1.04051672643725    5.47817489094562    7.24694916000425
H         0.54448174748354    5.27234583912101    8.18372076603797
C         1.86378160601046    6.58798368420679    7.14338864736246
C         2.53256433559595    6.78971408337459    5.94354608641850
H         3.21468349155437    7.62227932764570    5.85933542472312
C         2.37117029553139    5.94699005050400    4.85120374833343
C        -0.02702956509256    3.40964721012064    6.46322506853687
H         0.09289879972242    2.62858430368877    5.72287850607884
H        -1.07544461131368    3.70153266845763    6.52659983427409
H         0.24567777740864    2.99968594015046    7.43406495213906
C         2.07068264290816    7.50388110297821    8.30283735803774
H         2.88542062038282    7.12748122604613    8.92139912812620
H         1.17981759477914    7.55684578349689    8.92314379049854
H         2.33809013857157    8.50329503356974    7.97037828936113
C         3.21954437186971    6.21534323557846    3.64699394442884
H         3.80624732589804    7.11733982906162    3.80387705318223
H         2.64579823512790    6.32609696731624    2.73125431787240
H         3.90163484117638    5.38257297231900    3.48385848674183

