53
CSD_code = MIGFIS | q = 1 | S = 0 | Stoichiometry = C19H16N9NiO4S4(1+) | MND = 6
Ni        8.58617345626421    4.64784657948123    3.69253747592938
N         7.15275974124985    3.98401169854884    2.73119057920485
N         7.43324406455759    1.65351493534744    2.78453082692336
H         6.90519666128171    0.79613654649885    2.87813392504617
H         8.13127489897626    1.79127932858207    3.51668070045344
N         8.01364853806797    6.45362624615989    2.86862193063142
N         9.61202410022524    8.14955897572881    3.21503965236431
H         9.84707217816196    9.10764190077673    3.01870443865810
H        10.36659520685790    7.48305196959320    3.23886727157552
N         9.96311281756421    5.40583137178790    4.70280193552074
N         8.77776074461557    6.78710929185433    6.18631391059799
H         7.90595592518464    6.30055804414642    5.95035221364135
H         8.81274698059513    7.33215352898073    7.03088958774301
N        10.32063014039754    3.64768654283891    2.67267434045667
N         9.73175560094527    2.19192801625168    0.92544992264239
H         8.78385974605672    2.10524159587531    1.26756049830004
H        10.06755056327727    1.48389417503373    0.29498825053965
N         5.80419817435121    1.28761095296194    5.84022708940186
O         7.05228751563847    4.79442395015668    5.57703847473680
O         8.34337328540465    3.06870400005786    5.13147919016315
O         5.69659255480690    2.07112550142849    4.91106657438985
O         5.54325392578033    0.10869395653174    5.76060058413631
S         5.10237496142179    2.72172609025367    1.88151919886345
S         7.14150576142133    8.81071887743833    2.35324381412556
S        11.47028389191341    6.65958096037569    6.35714520847038
S        12.34311406486191    2.60668613425876    1.46307996551093
C         6.24900908802857    4.94364066046567    2.32670916724145
C         5.08748422113409    4.44417685981535    1.83374655908753
H         4.23886310299930    4.97460370575845    1.45582636255665
C         6.69427332646934    2.76940906858686    2.56566741801825
C         6.71039113026876    6.30822464456641    2.43280234116293
C         6.08171825121337    7.46943635271323    2.12094973842713
H         5.07999768028316    7.61867062835642    1.77765361208331
C         8.39250940416637    7.70202085869926    2.85938532841147
C        11.26187211492927    5.05765389014765    4.38722072125006
C        12.20553004607569    5.64349758924450    5.16706628838384
H        13.26858139506557    5.53580814455652    5.12903343082066
C         9.90076721085038    6.23986554864344    5.71788845698862
C        11.45421283065372    4.14250685573005    3.28298009688844
C        12.62989306088791    3.69912160844503    2.76298680456610
H        13.62834506982405    3.94156648730424    3.05996551005730
C        10.61856883615865    2.82104685636455    1.71058706858267
C         6.27596738895340    1.80114681841368    7.08712180300508
C         7.03750272324448    2.96923953287834    7.10168220749383
C         7.45147855115812    3.46935874535185    8.32795970429707
H         8.04502103708788    4.37019381516085    8.35979851164466
C         7.11586263377914    2.81349743955422    9.50200211811593
H         7.44204902590371    3.21682791216972   10.44820012623164
C         6.37039167873317    1.64363421393673    9.47081652706304
H         6.11622658070001    1.13708231602882   10.38813875419089
C         5.94767542060135    1.13096487952575    8.25997396462542
H         5.35648157184211    0.22982197509878    8.19970785837339
C         7.47798111909337    3.65574142152926    5.83369196041948

