67
CSD_code = MIGFAL | q = 0 | S = 0 | Stoichiometry = C23H28AgF7N4O3S | MND = 5
Ag        2.78941792245463    7.04358709583987   11.62740109891719
S         2.22920346302177    9.38016474464585   10.70862459673332
O         3.46755234928110    9.53075068323585    9.98631706532519
N         5.41638494467650    7.05084230071009   11.67576520466719
C         7.18612807118064    8.82024109945089   11.82098157040547
O         2.36577710083780    9.26363201898891   12.14617025293031
C        -0.18975460160718    6.05665764974472   11.47132428166319
N         3.67943057012979    5.20065986510190   13.15142739762716
C         1.38840257468482   11.03861459799286   10.48780122129063
F         9.70706374861076    9.86099399459100    9.43683123241274
C         5.71537686279643    8.48112505426188   11.84862168745795
H         5.27958789410342    8.79483608485319   12.79939701889757
H         5.19731780643366    9.02940562332952   11.06218940356472
N         3.64985366296857    6.48343611063406    9.42672724029314
C         7.78570258893713    9.21535765309335   10.62915511426268
H         7.19979834241800    9.33255109057095    9.73138750983936
C         2.87476779483170    3.98860994256293   13.04305823970834
H         3.38767975170898    3.12472026842489   13.49408735339213
H         1.94434275778665    4.14695909358303   13.58874550129188
F         2.14939806843246   12.03097127862457   10.95869560537982
C         9.94181341262694    9.38663281770590   11.72288146495253
H        10.99594044899520    9.60482833220252   11.68610057945947
C         7.96941718901853    8.72338042994012   12.96596327852826
H         7.54079350962459    8.44836375333419   13.91621068616994
N         1.81584445292360    4.73254795565594   10.93620683792033
F        10.06333252260743    8.90220706057189   14.01780743595011
F         0.21413070021972   11.09804447419595   11.12595087055910
C         0.14274860038242    6.79248445643735   12.60827001286141
H         0.78060421874125    6.37909403741027   13.38236947231251
F         1.15179578389566   11.29086112914629    9.19610179445266
C         9.14070063913956    9.48879322014144   10.59987761334246
C        -1.29813911223435    8.60014201357377   11.88299426248510
H        -1.71958000536686    9.57961335163329   12.03506605897441
C         5.02064619583293    6.92691775506714    9.22148018484090
H         5.45247810147039    6.51176769755015    8.29784297659378
H         4.99712632674646    8.01241519782758    9.13885028000757
C         9.32115990002487    9.00625611460261   12.89813388681579
C        -0.42106411367395    8.04356090887221   12.79486473473190
F        -0.15437763537566    8.70773010823129   13.92918280224037
C         5.91035281223297    6.52315436429170   10.40462010248176
H         6.94231515613146    6.84860376347732   10.20712622104668
H         5.91500340920893    5.43488737469629   10.47172663177401
C         5.10195409585941    4.94980914224471   12.94961589394025
H         5.53083181953676    4.37307723138537   13.78496484999203
H         5.21004829926641    4.35219072613861   12.04573570871646
C         0.39055257011076    4.67828564794194   11.29692515272979
H         0.29088315823435    4.14570841069369   12.24470727829605
H        -0.17815499603012    4.12032665780338   10.54021130169192
C        -1.06607050421082    6.59409139628691   10.54194721854318
H        -1.34483469501203    6.05301301167023    9.65125263394785
C         3.33894064680163    5.14187881869877    8.97445669633095
H         3.33649597717989    5.05926567517446    7.87414986669339
H         4.10791467362085    4.46347084325279    9.35049778267217
C         1.95405376237214    4.72912730849187    9.47820979202609
H         1.70259172733025    3.73677235849404    9.06662039391776
H         1.24142846914513    5.46345842791022    9.09857198981840
F        -2.44033829962862    8.36276864391292    9.84772207253194
C        -1.58806365524638    7.85784300068033   10.75492424686367
O         1.30929420037056    8.43236535923079   10.11757352492004
C         5.88112011489705    6.25726383652387   12.80709075823087
H         6.95489375398155    6.02091056253700   12.73339883816911
H         5.71815443355849    6.83972086509356   13.71566769996963
C         2.55748055598629    3.65597671340305   11.58003093838769
H         2.00737174894741    2.70241165150309   11.54177649458984
H         3.49561441914440    3.52013220054205   11.04761212914061
H         3.01157865276929    7.14313444327007    8.99226548981954
H         3.56008488408704    5.60449450031945   14.07613446357288

