66
CSD_code = MIGHOB | q = 0 | S = 0 | Stoichiometry = C28H32Cl2N3V | MND = 5
V         5.87422367322431   12.49570216720923   13.73327258586699
Cl        7.79870610614762   11.71690811868749   14.28991026469152
Cl        5.16603485377629   14.32191289578234   14.51760665518418
N         6.19624450016378   12.91425324794778   12.23517611460179
N         5.59412167248116   11.87258332026727   16.19675679149885
N         4.59849115943342   11.35153836641710   13.37229496017955
C         6.63990457973288   13.45079588289549   11.03997943317169
C         7.33028077652061   12.37636697511099   10.17719359515051
C         7.66046917418132   14.56145063358701   11.37857238940832
C         5.47168606118596   14.06601933995841   10.24492003435754
C         7.85539995484282   13.01752894206180    8.89508220974053
C         8.86441875895147   14.11273245508196    9.23954132521908
C         8.18118149263703   15.18536359058727   10.08716253266057
C         7.01621098277517   15.79212813643912    9.30578607040998
C         6.00887744054242   14.69530191222535    8.96192207617509
C         6.68873419040702   13.62095951760219    8.11332772727642
C         6.39750536494411   12.46741312291955   17.03680263007659
C         7.19352759541755   11.77877388124963   17.96842024878289
C         7.14466168374946   10.41187240283488   17.99523671248274
C         6.27819370368540    9.73461643609802   17.11235859513075
C         6.15025637707436    8.33198996107987   17.06638455474112
C         5.27850431415078    7.74865163308659   16.18979657760736
C         4.49435183632761    8.53402239214813   15.32990401337934
C         4.59369317030444    9.90155010025477   15.33490010285448
C         5.50410278213007   10.52604008595440   16.22357667407688
C         3.77785633999603   10.78516093783174   14.42751893802830
C         4.19949704392966   10.99318922507166   12.07435702497639
C         3.12708963033412   11.66639843299578   11.47090974157071
C         2.75011862924688   11.31432492108650   10.18165444768867
C         3.41640143942697   10.31462524726127    9.49649966932965
C         4.47918493734327    9.66069252138164   10.09403972437564
C         4.88461693065200    9.98469685536643   11.38193124024772
C         2.42997946214920   12.77516261167761   12.20016465503834
C         6.04213570341774    9.28163198083375   12.02362898578500
H         8.14477866077096   11.93353902983607   10.75539289715042
H         6.60503827590444   11.59336284501647    9.94724371112106
H         7.16406025832844   15.30959785812490   12.00363622665053
H         8.47642521214594   14.11792165852006   11.95705370014098
H         4.75161660917709   13.27857549480410   10.01508103613771
H         4.97804892897241   14.81294565328463   10.87101479113472
H         8.34482578883860   12.24978912344907    8.28554282463318
H         9.25634870635066   14.55855709543060    8.32263727848128
H         9.70359109921905   13.68344556182005    9.79049596252257
H         8.90371730377333   15.97080973712827   10.33529206559161
H         7.38664130575533   16.25699992254764    8.38942621985625
H         6.53148861020141   16.56622972007843    9.90392143018125
H         5.17440724850419   15.12951505124711    8.40016973314726
H         5.96919214195894   12.83917591925682    7.86107568505799
H         7.05335101458892   14.05923599100917    7.18169799510689
H         6.43181581072979   13.55058812851273   16.98316679210794
H         7.84084554986237   12.33246541659739   18.63094226993243
H         7.75815746277112    9.84018345925459   18.67781930967457
H         6.75082430458221    7.73215042739836   17.73484995638929
H         5.18046739571130    6.67373891015926   16.15420064213387
H         3.79883132115766    8.04819827781989   14.65889596902570
H         2.95869919223189   10.19902695466639   13.98912131064727
H         3.34542628648727   11.60201999914783   15.02693799955520
H         1.92816029934627   11.83447382551863    9.71101466738200
H         3.11216552786752   10.04961946665991    8.49484393534436
H         5.00435647424583    8.88538428587056    9.55462156061603
H         1.74987982032004   12.37720670051549   12.95403752384177
H         1.85122554458350   13.38118835054898   11.50754855955256
H         3.16710273142487   13.40618430441192   12.70356051688945
H         5.70361406684382    8.65663546235206   12.85057467029093
H         6.74471854363202   10.01488975896614   12.42679177337724
H         6.55561618243832    8.65158735906521   11.30160168455765

