47
CSD_code = MIGHAM | q = 0 | S = 0 | Stoichiometry = C12H26Br2N2O4Pt | MND = 6
C        -6.43058089465618   -2.96032541346384   -9.43216007885548
H        -5.83089797576976   -2.09295917414707   -9.15752135360767
H        -7.46280177586149   -2.65104828010121   -9.59265812563483
H        -6.02173341851282   -3.38400674228881  -10.35276036217073
C        -6.78832483296534   -7.41938994662812   -8.59719468709853
H        -6.64924724820909   -8.35498134114646   -9.15153059146160
H        -7.83027389347270   -7.36508688238189   -8.26388310984856
C        -7.45598858009975   -6.16808054054928  -10.56589327791976
H        -7.35337799941333   -5.19835493226176  -11.06382714565923
H        -8.48408859070253   -6.24260973132237  -10.20258911807220
C        -7.19717805212976   -7.24599573127669  -11.61097941355356
C        -8.04547737788589   -8.23223420767680  -13.57839949958951
H        -9.06803294645084   -8.44279860457576  -13.89540528234293
H        -7.57497939829809   -9.14440380764998  -13.19834517274620
C        -7.22395695675898   -7.64654798400428  -14.71606660483228
H        -7.19016087919885   -8.35332066658046  -15.53982444032584
H        -6.20836270679593   -7.44925472653116  -14.38158004531435
H        -7.66960947827213   -6.71751411912719  -15.06272031358873
N        -6.51796099405296   -6.25580337987809   -9.45285054299118
H        -5.58320538352228   -6.38623529024258   -9.85457539643769
O        -6.21543811186355   -7.94441596990183  -11.61175356596726
O        -8.17908451653602   -7.29780790185466  -12.50026338070224
Br       -8.78751664606439   -4.52982372490755   -7.68255417439250
Pt       -6.32571822079847   -4.43482992867034   -7.99122514564613
C        -6.22022571857286   -2.96043940444341   -6.55016514382200
H        -6.81974243781284   -2.09294711278531   -6.82478430071402
H        -5.18796434626172   -2.65134133027879   -6.38952375294907
H        -6.62926837975643   -3.38411545228826   -5.62964608813249
C        -5.86239655797393   -7.41935464054164   -7.38518255984098
H        -6.00142105937877   -8.35495590753899   -6.83085515472146
H        -4.82044352319785   -7.36497551145136   -7.71846255009013
C        -5.19493346570142   -6.16806243706352   -5.41638897066579
H        -5.29768288239107   -5.19836768519488   -4.91842453360380
H        -4.16679958016243   -6.24250435426206   -5.77960739950033
C        -5.45380148548375   -7.24600480122598   -4.37133921310145
C        -4.60550744136462   -8.23238239710689   -2.40397947864598
H        -3.58293248744286   -8.44343097073352   -2.08734529975831
H        -5.07655469093863   -9.14430728194206   -2.78394415121015
C        -5.42636322407985   -7.64638337424602   -1.26598613407870
H        -5.46018381352398   -8.35320194884187   -0.44226891144508
H        -6.44199452844053   -7.44860457749528   -1.60009140672694
H        -4.98016426999870   -6.71757130971989   -0.91941998017501
N        -6.13285483536618   -6.25579665794024   -6.52952034469296
H        -7.06763083171669   -6.38628002344122   -6.12785713426515
O        -6.43554757447831   -7.94440863229095   -4.37062607067196
O        -4.47187815967593   -7.29791857630160   -3.48207681668635
Br       -3.86381182799236   -4.52961658570077   -8.29954377574859

