39
CSD_code = MIGLOF | q = 1 | S = 0 | Stoichiometry = C19H17N2Os(1+) | MND = 9
C        -3.18777415785653    9.58313706980894   12.00232241681430
C        -3.98498839815408   10.08529796889719   10.98995522984925
H        -3.78091836587437    9.83416779744698    9.95854870157845
C        -5.06299658655983   10.90891765572699   11.28238242039081
H        -5.67383153673689   11.29654268592554   10.48120282022838
C        -5.36017090128490   11.23572566198763   12.59706926641094
H        -6.19823436199905   11.87900768100555   12.81491697083342
C        -4.59104466237853   10.73278807314909   13.62703394499974
H        -4.83315031855722   10.98303594947403   14.64798632691739
C        -3.50696024714994    9.90311290349828   13.33700180971113
C        -2.63379419027566    9.28800589658230   14.32404389369107
C        -2.74125151662100    9.41618946615124   15.70859686703445
H        -3.52230757873095   10.02942332556350   16.12592267285520
C        -1.85045258469402    8.75855315732167   16.53307172232721
H        -1.92163691738549    8.85177376430229   17.60494020685337
C        -0.86234390209204    7.96723182760872   15.95725818747731
H        -0.15318744512097    7.42939693322090   16.56427321448497
C        -0.80406086306596    7.87851082800257   14.58172031005140
H        -0.05577145401379    7.25904329658529   14.10311965539864
C        -0.25204183617350    8.04835664968240    9.61889659416574
H        -0.49666988429981    7.38870396909930    8.79587047282201
C        -0.76010032587340    9.34935192733315    9.64241547352432
H        -1.36871947418741    9.71326523250696    8.82529594541473
C        -0.41553184104680   10.21236567408327   10.70817969803124
H        -0.74873929121002   11.24379650092896   10.69717882900666
C         0.47601990885315    9.76872837966899   11.70050977279395
H         0.81940958777248   10.45982091440202   12.46259125472829
C         1.08962384774226    8.49965967902800   11.58610799530266
H         1.86866291840516    8.21735908411204   12.28010387104896
C         0.71191053553966    7.63919301283413   10.56949350870407
H         1.18120217046277    6.67129713884963   10.46893284177647
C        -3.21382469471002    5.98433140727457   11.66239769678715
C        -4.03575752631942    4.81856316288154   11.58220446126268
H        -3.74752140165671    4.21383346858341   10.72239525395727
H        -5.07983903219644    5.11396451339265   11.47466157124637
H        -3.92654479152149    4.22214549047244   12.48821068765975
N        -1.65298370990931    8.52307977639878   13.77702334598313
N        -2.56882927041476    6.94549422773322   11.74105321344005
Os       -1.48334990070416    8.48052784847655   11.76751087443659

