143
CSD_code = MIGLUJ | q = 0 | S = 0 | Stoichiometry = C60H76MnN3O3 | MND = 6
Mn        0.86279691972413   17.09844167736039   18.25290063071445
O         1.05424973303612   18.58603401591517   18.88601074725419
O         1.20372033760876   16.19432775618053   19.86996086952829
O         0.45707238670195   17.78974067791768   16.53283925461314
N        -1.40397625708941   19.54834628330313   19.11883098459207
H        -1.23643407454777   19.00933150258609   18.27605186187787
N         2.14516136338684   15.97709819219463   17.62827092633645
N        -0.72628778862138   16.25895512332951   18.02973164721204
C         0.96743263242553   19.80723842756656   19.35492872489629
C        -0.34383504855101   20.31351667238623   19.57331666012887
C        -0.51450482575147   21.55133499395388   20.17070100010862
H        -1.52051759427388   21.91612403878503   20.30349096835748
C         0.57765090470092   22.31704475308706   20.55369866014601
C         1.85280926917582   21.83638286453534   20.26798079538341
H         2.69919665158254   22.44415253815388   20.52633537362543
C         2.08541950346487   20.61147208920677   19.66270122234713
C         3.48855124370731   20.12921052461803   19.31285983887088
C         3.55984772718833   19.85026532493798   17.80267557374042
H         3.31423379264097   20.75158308152859   17.24314087779539
H         2.87040604507504   19.06181349101866   17.50057263552312
H         4.56651714694203   19.53963341740340   17.52919530669426
C         3.81129276167603   18.85458601219005   20.10597849034171
H         3.11707903507524   18.04878348177177   19.87351176976768
H         3.75628713244736   19.05460466546118   21.17459157771418
H         4.81637583392544   18.50955324312523   19.86993325621013
C         4.56651768889596   21.16854777992860   19.64188068397441
H         4.39648371640674   22.09687216230361   19.10139810906539
H         5.53853212271423   20.78035782504779   19.34418612372565
H         4.60409826849805   21.37507852898209   20.70890760581004
C         0.33706282991941   23.65621300049864   21.23352030335497
C        -0.50452191398856   23.42876009613091   22.49775069501996
H        -1.47630131416614   23.00693389922231   22.25759622196786
H        -0.66332008436615   24.37174385023463   23.01649172675481
H         0.00839570823171   22.74615791128442   23.17217642326699
C        -0.41804668696781   24.57917538963885   20.26667922410477
H         0.16270198689386   24.72804432016521   19.35883048131860
H        -0.58910740113562   25.54813094322900   20.73074286203835
H        -1.38073366347797   24.15882094840248   19.98976043019826
C         1.63464124192081   24.35542379069557   21.64790381450657
H         2.24674595873345   24.59484956812689   20.78163213916217
H         2.20972585331307   23.73768039352787   22.33370240368785
H         1.39603852026538   25.28801538352922   22.15521930792480
C        -2.67764107332856   19.45808855746825   19.64347696384911
C        -2.95640141902636   19.76236212967171   20.97690716273197
H        -2.15850649228994   20.08018454639329   21.63048593322625
C        -4.24044403962809   19.62106547339507   21.46625190809551
H        -4.44178284885029   19.85749824044016   22.50101910390975
C        -5.26285666202778   19.16739678504402   20.64913547791595
H        -6.26339658172336   19.05751327847008   21.03860561790074
C        -4.98685867754979   18.84480270917166   19.33012423838280
H        -5.77543211921668   18.47870820487080   18.68853890341338
C        -3.70957691647610   18.98858417240984   18.82635267752082
H        -3.49448920462085   18.73116325674953   17.79860359926990
C         2.28487371949749   15.45388243068140   19.86866923958369
C         2.87745361442389   15.30593967796202   18.58820771215069
C         3.98519072988296   14.48249258328380   18.39395551435573
H         4.38183199526036   14.36740709141320   17.39922696276395
C         4.54174007079865   13.83386926591852   19.48028217620507
C         3.96310583634120   14.01274680597488   20.74412376067428
H         4.41845637044614   13.50830889611347   21.57886561063104
C         2.84319895441100   14.78762015554762   20.97895153500425
C         2.22422992108439   14.97027532317482   22.35548241299259
C         0.78317453936223   14.44582569919192   22.31788197727603
H         0.30847456235970   14.57484006627695   23.28863128208705
H         0.77138849720875   13.38827705488606   22.06235302221821
H         0.20600145355567   14.98581956913229   21.57345662715581
C         2.98731414013559   14.22734158496978   23.45510367167452
H         2.50003636347425   14.40440777923058   24.41194990553421
H         4.01322081027012   14.58140043331557   23.52960768270473
H         2.99034018336343   13.15495165744231   23.27408106617151
C         2.21439463812273   16.46611703605438   22.69772873951623
H         1.76252127535983   16.62648836197901   23.67477138743410
H         1.63985922561273   17.01606704403969   21.95724200803761
H         3.23071285169538   16.85594972916791   22.71517593122176
C         5.76066667213025   12.93060998394530   19.35476302487930
C         6.26953549458190   12.82590624597454   17.91423975389581
H         5.50749350324053   12.40972571070887   17.25969895110581
H         7.13641612647367   12.16861995873171   17.88262325747876
H         6.57128777228748   13.79882596702654   17.53387583522496
C         5.39583291591950   11.51829662736476   19.83310166806645
H         5.08920013262113   11.51897816794854   20.87506934681256
H         6.25163196835489   10.85406058723381   19.73029455225986
H         4.57649379420799   11.12205820308675   19.23730322995033
C         6.89664644894281   13.49447200891465   20.22029972661798
H         6.61561127736960   13.53103350630232   21.26884847017227
H         7.14634307475001   14.50351564219757   19.89940776774206
H         7.78438409401402   12.87215644545215   20.12689564746921
C         2.53242408820241   15.84731088320811   16.28316848308824
C         3.76594883375548   16.32122128544438   15.83587032620833
H         4.43735239402670   16.78997923460235   16.54091566568424
C         4.10959610146492   16.21028395761975   14.50172221125401
H         5.06399590204306   16.58652441863302   14.16281733498916
C         3.23643019621640   15.62452021562123   13.60025206808143
H         3.50847284231831   15.54198239974877   12.55870957038042
C         2.00982631306756   15.15169073698552   14.03851763600761
H         1.32412351600594   14.69749756415347   13.33839929488376
C         1.65691622346705   15.25836354199049   15.36967739629381
H         0.69725527102412   14.90146092451490   15.72141418262896
C        -0.78770027862150   17.61006625780430   16.16173826579978
C        -1.51541366527853   16.72401114090727   16.99770381943483
C        -2.82638223789935   16.35640309612253   16.69228345293540
H        -3.33262457979437   15.65593504012854   17.33438680552292
C        -3.44307622855351   16.91256111910021   15.58738788061202
C        -2.72285146186093   17.81566897192260   14.79219615916670
H        -3.22477339487846   18.24768356498856   13.94366261375514
C        -1.41073261788682   18.17741348141126   15.03120175989048
C        -0.64142661078921   19.17309734564429   14.17883416871198
C         0.59064555786166   18.47092445962170   13.59380048137175
H         1.17303186651463   19.16756204638758   12.99411369947644
H         0.28670440515642   17.63806753919410   12.96308153085303
H         1.21964199692306   18.08612462522191   14.39107814158363
C        -0.19238797278344   20.33619909761239   15.07570373993974
H         0.36852385882007   21.06547051544480   14.49471074971912
H         0.44666410519866   19.96968810933262   15.87516317683779
H        -1.05574998820031   20.83363183274729   15.51566266688779
C        -1.47558347546539   19.74091893295046   13.02803639512504
H        -0.87207599382853   20.44747964811827   12.46177618076090
H        -2.35114077400448   20.26895463024880   13.39964527060771
H        -1.79371322480217   18.95258891451371   12.34965964644919
C        -4.87951367676404   16.58414867565374   15.20613549346776
C        -4.88996232424692   15.91892303067796   13.82283879875160
H        -4.30080655369087   15.00465865866969   13.84318374163790
H        -4.47166610127513   16.57606205306615   13.06550908120266
H        -5.90851858518799   15.66823485591397   13.53352063245920
C        -5.54591699294682   15.63026636426084   16.20157181143516
H        -5.02534752116095   14.67637025004127   16.23874380197467
H        -6.57182703715508   15.44089694385072   15.89151782434368
H        -5.56807526271622   16.06016548457458   17.20030508012558
C        -5.70556267024780   17.87817902394343   15.16484358110458
H        -5.66387989164236   18.38310423547650   16.12746561575975
H        -6.74542770738703   17.65097325617736   14.93877654971244
H        -5.33733052509768   18.56293851240491   14.40632492613673
C        -1.26849736039319   15.27555127879589   18.87679047197438
C        -2.35153070453582   15.55964961173342   19.70901693045470
H        -2.77720711690806   16.55336552648304   19.71008832219478
C        -2.85945699592428   14.57922052050301   20.54055636989823
H        -3.69415925724475   14.81058727518746   21.18604483674112
C        -2.30305675602759   13.31082048143622   20.55051790105874
H        -2.70450703341073   12.54875203808653   21.20148139002543
C        -1.22429602742492   13.02581342282971   19.72889789460411
H        -0.78311920716131   12.03994419325437   19.73745451417087
C        -0.70741380795184   13.99857273291912   18.89515638253243
H         0.14142349290881   13.79098074779171   18.25630802034556

