59
CSD_code = MIGLIY | q = 0 | S = 0 | Stoichiometry = C22H26Br2CdCl2N4O2 | MND = 6
Cd       -0.00004484364280    1.66357779444856    5.81353304046980
Br       -1.37846098959839   -1.14369166526270    9.50108082187196
Cl        3.75867148527614   -1.14442514788325   11.56535210359701
O        -0.05547182331732    0.31003411666010    7.39181338571953
N         2.13244633340745    1.79899770373009    6.19447620986459
N         0.87326136001226    3.35144564819614    4.03861205774033
C         2.20870242404427    0.45219578141794    8.21479968545849
C         0.83033871172692    0.05650075678254    8.25892779702728
C         0.45918432708639   -0.70013472098390    9.41573992291679
C         1.31080345483644   -1.06746672208139   10.41635421364653
H         0.96495607085694   -1.63621361391416   11.26546660928746
C         2.65237845984789   -0.68504362377372   10.31323104393908
C         3.08508632484719    0.05180001197242    9.24160127766419
H         4.12303786344200    0.34485770093267    9.18371638331185
C         2.76560793408757    1.21972395700868    7.14695426114836
H         3.86189468445086    1.30629639471809    7.17718204240238
C         2.90237530224421    2.45116508941694    5.16474777933958
H         3.06083336008717    1.73172296361924    4.35312185384683
H         3.89083071435777    2.76007915988573    5.53912698576715
C         2.17094675679984    3.68284673844994    4.62586572990367
H         2.00457245882051    4.37193094485565    5.45972150083838
H         2.81994648486682    4.18369741829511    3.88714343302057
C         1.05453325169481    2.70484367761813    2.74167299485446
H         0.07927560303438    2.49663041742178    2.30370565416930
H         1.58151011252017    1.76266783414268    2.85759462558163
H         1.61936091349930    3.34889094960549    2.05132891739394
C         0.09037425164707    4.56189497565181    3.82687572802731
H         0.57041327316654    5.23346253898245    3.09898238684110
H        -0.03186659840855    5.10618215738456    4.76160425067441
H        -0.89486474400008    4.29080229954956    3.44861782097368
Br        1.37842461892980   -1.14416096773725    2.12641764002205
Cl       -3.75855192709231   -1.14448444107261    0.06163021178539
O         0.05554307220697    0.31010179563045    4.23520487315611
N        -2.13243955266917    1.79943561493990    5.43225738011400
N        -0.87322864521441    3.35137260237836    7.58851514665413
C        -2.20873075514999    0.45203360340839    3.41229609206743
C        -0.83052208811011    0.05572780376700    3.36856058323778
C        -0.45901535154441   -0.69968163372574    2.21106099641356
C        -1.31068657477561   -1.06734581477442    1.21061101166193
H        -0.96480559625159   -1.63605967359107    0.36149066329634
C        -2.65234959499898   -0.68529946761648    1.31390398044752
C        -3.08502813106378    0.05177611503698    2.38537408577933
H        -4.12299479141934    0.34482325317141    2.44321198869942
C        -2.76552165405920    1.22042105999859    4.47957663765076
H        -3.86191121538271    1.30598309268779    4.44997648035720
C        -2.90253711548425    2.45136985565842    6.46203387122517
H        -3.06096973578076    1.73197837040994    7.27370139123104
H        -3.89098933035250    2.76039448453732    6.08764777908314
C        -2.17087290498856    3.68275440428288    7.00111529869160
H        -2.00457884099191    4.37181543831313    6.16722618626757
H        -2.81996631453635    4.18356222348010    7.73976120921749
C        -1.05464327944163    2.70464882579427    8.88537355595340
H        -0.07943849321535    2.49648124038808    9.32346819599330
H        -1.58164600620732    1.76248365650540    8.76940970816727
H        -1.61954407332713    3.34875027204789    9.57558211202051
C        -0.09031902428573    4.56184879050212    7.80014031135363
H        -0.57025090570977    5.23338373479156    8.52813501123320
H         0.03212045224069    5.10618119217386    6.86542039944765
H         0.89482084096728    4.29063303176091    8.17844668148536

