38
CSD_code = MIGMIA | q = 1 | S = 0 | Stoichiometry = C17H17N2OOs(1+) | MND = 9
C         5.81987287878118    9.50736980251510    8.01448794609982
C         6.82102135603576   10.25045122291623    8.61546021915041
H         6.91312044605022   11.30829721938123    8.41620273732021
C         7.73015287349095    9.64882981892166    9.47704940215722
H         8.49949809895472   10.24908736934028    9.93920364099821
C         7.66598131438799    8.28939387335208    9.74975859016779
H         8.38055570883003    7.84086451562348   10.42165271138474
C         6.69277663548306    7.51285764693831    9.15392120770808
H         6.62468845570550    6.45229917284379    9.33921553012524
C         5.78208656404950    8.12374084197557    8.29312439576821
C         4.72594386262378    7.44640173684518    7.58521592093357
C         3.36342154774847    5.90446370029448    6.73950652113410
H         2.56791295689355    5.44527806116571    7.33042520635280
H         3.68448275864310    5.20668113891068    5.96344387157750
C         2.98008561165274    7.29494661872317    6.18455394153496
H         3.09060401363455    7.35733728146676    5.09841885966145
H         1.95833442059089    7.57901141796879    6.44949355311527
C         1.86566507907161   11.02056283134951    6.68470946562860
H         0.94509125425360   10.56394030250011    6.34966490984781
C         2.58121014379942   11.85182043678662    5.83965345960801
H         2.23065382521439   12.04951851763171    4.83704489624060
C         3.76749798586287   12.47255097988608    6.30444440074703
H         4.29390422801954   13.16022189055460    5.65262048008034
C         4.14136496843439   12.37236012174522    7.65444332084236
H         4.93070835315922   12.99756082807050    8.05065555963530
C         3.40619662583182   11.52380154230403    8.51407640566146
H         3.64245129742327   11.48787548214945    9.57077220746998
C         2.31105206088831   10.80757810386725    8.01225511670867
H         1.71155127074519   10.20476115422916    8.68408360792706
C         6.15821637673637    9.87605551408804    4.44226336251786
C         7.04639623694034    9.75421209157161    3.32911696626127
H         6.48838754803032    9.53210435802253    2.41929306760471
H         7.75692455594124    8.94909794830313    3.51715231113012
H         7.59703051677764   10.68471203449526    3.19008517002584
N         3.94360052722949    8.17128408893658    6.83650804202796
N         5.45559666257362    9.96309202647283    5.36112364736900
O         4.47795747877506    6.15061942996939    7.60616713203006
Os        4.29440350073702   10.20685887788278    6.81753221544679

