61
CSD_code = MIGWII | q = 0 | S = 0 | Stoichiometry = C31H21NO5P2W | MND = 6
W         0.62912424919778    2.78765610165958    1.08679877021524
P        -1.12346706689906    3.98254831017305    2.28445694093874
P        -2.51083459617677    4.19012835702991    5.01770239234696
N         0.29285871811946    1.89480024701833    5.02633790662173
C         0.01613989960705    1.07490143203819    1.92703080416803
C         2.08504975806772    1.81934951679439    0.14026368413423
C         1.17771718157549    4.52251793251711    0.26831966648738
C         1.86414604736043    3.19511295831918    2.60903622228046
C        -0.62315139785395    2.46094640832736   -0.43245117193958
C        -0.83460233682573    5.77012922376663    2.43963904323567
C         0.05429496667017    6.24361048513968    3.39816782161695
H         0.54932789740300    5.54253790914909    4.05843601666647
C         0.31000080329370    7.59847392575178    3.49919217953175
H         0.99118441299923    7.96299290774375    4.25435004268820
C        -0.30152175398877    8.48372672327341    2.62601717611341
H        -0.09970757567697    9.54195274844094    2.70235533189782
C        -1.16095466914990    8.01244051640874    1.64538684663752
H        -1.62137030468493    8.70286424473463    0.95362917518846
C        -1.42964195475026    6.66020904538754    1.55101609038683
H        -2.10075357453706    6.28074325225072    0.79061944669895
C        -1.49866068099335    3.31688083129262    3.89576781915774
C        -0.48727093067849    2.57102112390850    4.51287596548075
C        -1.77742501614634    5.44183148013630    6.12712960397917
C        -0.47439253255468    5.20855630647241    6.55867336498302
H         0.04590824997151    4.31829704946925    6.22984536850689
C         0.14454128061100    6.10849948982824    7.40630740797773
H         1.15632607998216    5.92682474246509    7.73574733013707
C        -0.53464891799809    7.24001674512444    7.82877071523734
H        -0.04967632641063    7.94739480334396    8.48462313520268
C        -1.83933480769562    7.46214890800830    7.41864011334829
H        -2.37269887886976    8.33703435717747    7.76043154564943
C        -2.46691330524932    6.56586010732303    6.57223621515668
H        -3.48964604686353    6.73563735967999    6.26511322972571
C        -3.26453187815302    2.99389274484819    6.15154401471799
C        -3.25657107833378    1.64042734886295    5.83212103942478
H        -2.77563270573736    1.30603991827697    4.92398936903220
C        -3.85088103496932    0.73132091832841    6.68878084078905
H        -3.83603583113814   -0.32045287147039    6.44660894886494
C        -4.45935541626655    1.16930318062939    7.85364780283195
H        -4.92193111853229    0.45748880599651    8.52074494830856
C        -4.47267998760316    2.51937402020043    8.16876441683115
H        -4.94636804320661    2.85856366050392    9.07801713094273
C        -3.87478461141725    3.43410854636817    7.32249126591778
H        -3.87222884888155    4.48699353608325    7.56928279811004
C        -3.83149621623121    4.97502615204914    4.06987669930741
C        -3.75837439416754    6.30166940854155    3.65905041208719
H        -2.92381081628802    6.91940812046390    3.95837258689206
C        -4.75616570754085    6.82119994229003    2.85371620420197
H        -4.69873996214939    7.84998725576711    2.53099961807174
C        -5.81779424184445    6.02454504592463    2.45608116652068
H        -6.59189980117313    6.43519367273265    1.82539102464036
C        -5.88679896536498    4.70056840693583    2.86115423721199
H        -6.71199290182940    4.07976206403335    2.54607622997209
C        -4.89443118605435    4.17237957073030    3.66587905205486
H        -4.93144296786371    3.13869073838993    3.98355456864625
O        -0.37276046828647    0.09507266810486    2.35885579261283
O         2.92051908130771    1.26624251547714   -0.40962044093177
O         1.46470139205368    5.53647253603502   -0.17461219671997
O         2.58585051978841    3.50585115155115    3.43497032708042
O        -1.35979173837514    2.31080814939787   -1.29314627965690
H        -2.43171794260133    4.10721724283059    1.78084222179470

