45
CSD_code = MIHCAI | q = 1 | S = 0 | Stoichiometry = C21H16CoN4O3(1+) | MND = 6
Co        2.66856123793788    7.15153443540076   12.46835090108925
O         5.69084964030543    7.45993942278473   14.17159386934916
O         4.08521371004850    6.23268248554930   13.16717520720882
O         3.83682742777114    8.33440819929054   13.22749744018059
N         1.83129298680652    6.83451933083433   14.12395506312690
N         1.69195600306269    5.59424018765937   11.90430512067222
N         1.45539715618119    8.48353922885813   11.79644945046821
N         3.60300436031313    7.47868081773880   10.86712657276578
C         4.70617408852933    6.85158320626283   10.47189422619808
H         4.97392708924387    5.95640283318132   11.01732848102614
C         5.49685031147269    7.32673560923242    9.43828412647284
H         6.39008518062095    6.79243533568592    9.15905843374427
C         5.12684080560345    8.49773945289381    8.79522001592138
H         5.73084281075568    8.90547338853924    7.99985805491815
C         3.96844430722218    9.14259699377716    9.19619656714288
H         3.66053829202090   10.05499215125382    8.71327632410354
C         3.22202145430647    8.60999649059611   10.24229482629596
C         1.98645277834511    9.18362343570312   10.77302463855065
C         1.38278286307368   10.34072393642483   10.28853297018714
H         1.82879591265837   10.88903773675571    9.47568961850888
C         0.20876198739092   10.78713422900920   10.86830159802699
H        -0.27012238972258   11.68672443404838   10.51517238555106
C        -0.33755340914700   10.05299891803021   11.91087254489962
H        -1.25389363810317   10.35880585793825   12.38863358351268
C         0.31904367141898    8.91321730567896   12.33991974479550
H        -0.08808774804923    8.32323737613151   13.14924707703497
C         1.64790362718593    5.04235117931096   10.69406949455368
H         2.03474155105800    5.63225000915197    9.87476733360972
C         1.13449003867003    3.77895517006521   10.46045032832553
H         1.12603528214863    3.37744918011089    9.46036987636409
C         0.64386161716301    3.04771881257927   11.53235687880924
H         0.24717960813045    2.05504258148615   11.38913661802713
C         0.67273822522023    3.61904499219459   12.79194350733396
H         0.29657535169167    3.07564600629980   13.64253979263845
C         1.20277019701537    4.89655232921857   12.95004560492821
C         1.28385167598319    5.60749065024457   14.22492184015516
C         0.85173004378713    5.10907340547204   15.44966286658284
H         0.42655897780638    4.12171671772901   15.51940164751242
C         0.99367599458711    5.88926309171497   16.58529568908927
H         0.68370148435120    5.51337552183648   17.54773637013759
C         1.54625940345042    7.15466099553034   16.46222202676073
H         1.67607864704003    7.79501547240861   17.31920427713245
C         1.95372870924864    7.58888316702202   15.21133736432742
H         2.41398003162627    8.55864458881994   15.07634985316607
C         4.65393264376596    7.35426332954569   13.58772978879397

