58
CSD_code = MIHHOC | q = 0 | S = 0 | Stoichiometry = C31H20IrN3S3 | MND = 6
C         7.84801389210259    2.17861683735877    8.63009817918038
C         8.88982936597258    2.16087051864728    7.70502129837995
H         8.86863040708001    2.83247780578187    6.86333567685227
C         9.93152777907888    1.27635187541965    7.88480646003562
H        10.73954704784967    1.25702844152040    7.16884341117780
C         9.96069072215220    0.40640760300381    8.97230131315897
H        10.78808859438930   -0.27668660956069    9.08834575424214
C         8.94157325527785    0.40688095004433    9.90499157349674
H         8.95403464675442   -0.26228304352358   10.75097114883309
C         7.89341364278893    1.29247179704239    9.72704909314158
C         5.94798384544562    2.76426674363386    9.62515592944940
C         4.73411188354055    3.50718510811842    9.77511979982911
C         3.86836762559349    3.31428102194149   10.85466516854354
H         4.11678845154485    2.58351818416991   11.61296407025403
C         2.71225746305988    4.05547521889773   10.93866800466268
H         2.03406948619128    3.91732343555679   11.76770456685223
C         2.42404418840730    4.98296949427004    9.94345172415216
H         1.51424521314311    5.56347123300829   10.00645299707826
C         3.28280309863825    5.17035452657287    8.87478456706865
H         3.02125172808834    5.89470317767466    8.11694925367204
C         4.46985417659773    4.44676389109687    8.74813320440134
C         7.76523040222650    6.08228397820134    9.38664784426499
H         8.00057257165972    5.09002298512731    9.74956909606032
C         8.36359686181032    7.19156824060092    9.95334059642153
H         9.06606394532808    7.07582096953928   10.76307910271914
C         8.03625043961716    8.45037137565358    9.45681633911638
H         8.48335716647005    9.33819430340379    9.87872945742345
C         7.13523327599665    8.54315152312781    8.41972453550775
H         6.85050424117982    9.49493775074074    7.99876074668175
C         6.57172084667513    7.37355905640187    7.89647327908794
C         5.63585061711164    7.32590215442255    6.82244419432365
C         5.11771890814956    6.12343068549223    6.37143378978868
C         4.21511177343318    6.34778215146447    5.30247073670026
H         3.68627990362081    5.56066441929280    4.79394280423276
C         4.07217326907302    7.66048933408335    4.97469428761544
H         3.45608835573091    8.09115203491579    4.20845716369868
C         8.50416657978947    5.21345950430942    5.57431156726910
H         8.72841602819358    5.92191301872135    6.36199299410251
C         9.33847743713239    5.09883339164941    4.47881530319657
H        10.21608650383314    5.71971550614967    4.39632798318156
C         9.01766234798460    4.16784225666214    3.49409732356297
H         9.64880794834024    4.05144763932537    2.62556835368167
C         7.88318685277923    3.40283484644335    3.64441737912624
H         7.59016735211499    2.67169905017493    2.90710665587434
C         7.08254303307087    3.58097731860489    4.77954550053689
C         5.87576367152455    2.87017803271002    5.04438017031696
C         5.09208406636811    3.15075630366441    6.15192746059593
C         3.94835456299555    2.31260226456624    6.16530640220450
H         3.19168495364549    2.35194319414025    6.92988384295285
C         3.88893672440370    1.44864636805025    5.11615463029001
H         3.13438159705633    0.71626793429380    4.90024449895441
Ir        5.91501216271274    4.55367398250033    7.33907662152982
N         6.74624510095075    2.98266128095751    8.61179718611283
N         6.89426704391914    6.15460526490383    8.39001292631286
N         7.41129845405716    4.48028027059206    5.73615315998027
S         6.48724474464889    1.51883920174637   10.72834983054918
S         5.02411603225519    8.70681147401597    5.94888557178701
S         5.21851771044623    1.60223272268254    4.04044746978148

