52
CSD_code = MIHJOD | q = 1 | S = 0 | Stoichiometry = C20H25N4NiO2(1+) | MND = 6
C         9.24568390533675    1.11678587495347   16.56890272854758
H         8.75749062491043    1.75488907395911   15.82233153891308
H         8.73111415784662    0.15359468952628   16.57549091687587
N         9.12439004246292    1.69717576577117   17.91299387380217
H         8.22821949266012    1.39258779959708   18.28612479667208
C        10.70813752664260    0.88862115822292   16.15433773900475
H        10.71676491772839    0.31857935659784   15.21408210669936
H        11.19615029029434    1.84543232985284   15.96693394298567
C        10.57753813784477    3.65584819441337   18.18218014684084
H        11.16635886751327    3.54708253482375   17.26474591288002
H        10.57443051757272    4.71892217034846   18.45267899229402
C         9.14856033225332    3.16752419067899   17.95294097852279
H         8.52990328901815    3.49730480173391   18.79177913015352
H         8.74129040743607    3.60124134906616   17.03158551991028
H         8.89060435183416    2.22465417137410   21.53836462978454
Ni       10.56332877551049    1.10080952384219   19.30199382969460
N         9.93686867170323   -0.74301635941842   19.39769193340018
O         8.89793117182473    1.46345603337452   20.94174294956560
O        11.83001913044078    0.62192728239728   20.58500666756311
C         7.84471330803367   -0.67425923985274   20.69779631767470
C         7.85922218651490    0.63290099558643   21.21983229177287
N        11.18397121556959    2.85311357885394   19.23209823286070
C        12.64169001813817    1.36503773162144   21.24667140927030
C        12.84281286896418    2.75394580160460   20.98425589471656
C         6.73701319595545   -1.48292670751538   20.99491553051432
H         6.71361794080139   -2.49002019576470   20.60633566259681
C        12.10478525762293    3.39357063296050   19.96043983201852
H        12.35147563134121    4.44199341048763   19.78464194102781
C         8.92666645869414   -1.28521392657944   19.95429996592987
H         8.83362658274666   -2.37603794086577   19.90302526901354
N        11.41938581669975    0.20905525304823   17.22875490206120
H        12.41870541102130    0.36671966533450   17.14668192613966
C        14.31147304341386    1.52190042004240   23.00177373510862
H        14.88365346646169    1.04860074946829   23.78554517659793
C        13.78241918625914    3.48305501135937   21.74134306916127
H        13.92026497727627    4.53190248149494   21.52204248064746
C         5.73011610331609    0.25556520166806   22.28853313262600
H         4.92538575931177    0.61716792172861   22.90867206111008
C        13.40840151192246    0.78285797892184   22.28735698510260
H        13.25839319982979   -0.26658099814868   22.48835082811490
C         5.68765079637826   -1.02757267956812   21.76196208178050
H         4.84709400362592   -1.67053833081578   21.96664967379484
C         6.81181867500660    1.07254782320375   22.02171360935612
H         6.85217539481317    2.06962268154066   22.43902289335738
C        14.50626923576832    2.88310613832636   22.73401687375455
H        15.22281207539760    3.44712905620385   23.30885701070950
C        11.14783894452031   -1.22643335598611   17.32453838337200
H        11.96666687115144   -1.83158833423577   16.92168854064504
H        10.24520972044638   -1.46277173615232   16.75590077617858
C        10.92470774974618   -1.61084255453466   18.79519188322817
H        10.63399241599406   -2.66651847375228   18.86533643153336
H        11.86058636642488   -1.45690800080258   19.34244686411395

