55
CSD_code = MIHJAQ | q = -1 | S = 0 | Stoichiometry = C25H23N4NiO2(1-) | MND = 4
Ni       11.94348487602303    3.47301479110216    2.71184436330759
C        11.50462447983405    1.63098968762652    3.07906625329279
H        11.02742223172871    1.03066429487069    2.29674306563382
H        12.20379074638731    1.02305354415812    3.66366196508573
C        10.53940600726092    2.25322944607742    3.91328890211946
N         9.74691703619324    2.75047228833978    4.59872301946836
N        12.09431948385619    5.27668654442799    2.59183360736911
C        11.33169078505182    5.92638280954629    1.72281733801574
C        11.30698328542547    7.31463995374333    1.69658053918621
H        10.67809509559398    7.81602034260165    0.97723315083983
C        12.09303598411359    8.00597334711841    2.60719967130947
H        12.09359574465244    9.08780672261895    2.61240327785460
C        12.87279997195853    7.30509869475153    3.51595051943847
H        13.49300788418312    7.79896410717736    4.24792225819705
C        12.84331009035199    5.91717382135506    3.47935351900290
C        10.54527068730665    5.00491021435423    0.82840724193261
O         9.83111371227395    5.43410863196996   -0.07911747542922
N        10.77259679192084    3.72532825367761    1.14647967145671
C        10.10735908199756    2.72954784303763    0.41335154339944
C         8.72154570837415    2.55252157530714    0.52719125670469
C         8.11402217716545    1.53907287469380   -0.19755253403131
H         7.04365957085363    1.40134742303305   -0.11557938710242
C         8.85195764807591    0.70152886247779   -1.01476528938862
H         8.36071879296963   -0.08588001500844   -1.57087671211221
C        10.22116485046815    0.87187646923080   -1.11416224501061
H        10.80321382104645    0.21695017639335   -1.74987778712921
C        10.85913601417491    1.88114608604140   -0.41220253471613
C         7.92401622573037    3.44136354704097    1.42829187475016
H         8.38930448406633    3.49144852934773    2.41317116499772
H         6.90444705102299    3.07566716487969    1.53374594378819
H         7.89804780892421    4.45078632953794    1.01745076172304
C        12.33924490957025    2.08585358792272   -0.51062357425058
H        12.83445896114629    1.21126517848774   -0.92740032202442
H        12.74025737312240    2.29515881797087    0.49107126507262
H        12.56029860952851    2.95071466715622   -1.13671467836777
C        13.60480398711144    4.98624359330067    4.38549936312388
O        14.39781266599941    5.40625570223120    5.22963863238320
N        13.31651788723392    3.70983756345541    4.10650621569368
C        13.93337097932127    2.70610455847287    4.87038317493651
C        13.61028715379405    2.52594433526788    6.22244657264020
C        14.22632464894431    1.50410869230628    6.92794662331482
H        13.98229271865487    1.36374621869680    7.97298266163149
C        15.13854417571717    0.66151732784610    6.31823735943675
H        15.60732053894207   -0.13245942718106    6.88430848161206
C        15.44509140523195    0.83529256133142    4.98054418075578
H        16.15597858925606    0.17655605059981    4.49830602872736
C        14.85590795680153    1.85264498441454    4.24823219457662
C        12.60676761250241    3.42038043942571    6.87896773790227
H        12.34611691535771    3.05271309041596    7.86954868965391
H        11.70352514507415    3.48032645902588    6.27106376610397
H        13.01730893766819    4.42609898813121    6.97062526768948
C        15.17856296799629    2.06051550242798    2.80079324687672
H        15.65573164250341    1.18258233802688    2.37018657175922
H        15.84019988295734    2.91877108802369    2.68047602432422
H        14.25111620655860    2.28223332072406    2.25429757250203

