53
CSD_code = MIHKAR | q = 1 | S = 0 | Stoichiometry = C22H24N2O4Re(1+) | MND = 6
Re        7.43666581334924    7.14040474514499    2.29380522604181
O         6.63597565433204    8.19748446556305   -0.52103259916001
O         4.55878034895378    6.12356809787522    2.88365881096292
O         8.34200142361011    4.39359035455998    1.15394683693882
O         8.42225599556425    6.44131194022382    5.16095139237617
N         9.35180943293433    8.15629069450658    2.00548977619468
N         7.12180614889980    9.17757483645685    3.02442872310817
C         6.91114213684299    7.78565216063684    0.49553992611534
C         5.61791108576154    6.46646435033852    2.65690040344737
C         7.98207703228029    5.38489817005146    1.57645217156828
C         8.05007248288994    6.66488787905895    4.11685075197047
C        10.44745440680997    7.59636015488096    1.49789083213909
H        10.37146968695216    6.55603444380440    1.20902009019433
C        11.64116608811769    8.27130516271670    1.33265021102117
H        12.47879948258917    7.73934125784780    0.91680239463581
C        11.73761391548020    9.61081663660881    1.70241248199487
C        10.58157387468144   10.18535261863010    2.22902966917292
H        10.59945947155981   11.21871529129647    2.52889280155515
C         9.41158727769615    9.45275474872795    2.37564087844494
C         8.17303465550871   10.01990675554575    2.94199338621775
C         8.07244441023117   11.33421433559435    3.37733694915497
H         8.92546921764015   11.98510997814405    3.29526130445856
C         6.88893731549675   11.83091973789118    3.92178918200043
C         5.82498452719500   10.93465511560605    3.99295272392694
H         4.87044793934161   11.22334682329988    4.39676682189670
C         5.98431600084413    9.64032294251139    3.53783629998020
H         5.15729222811307    8.94409929984149    3.59101542944108
C        12.99904878139226   10.43082580628332    1.55316664304373
C        14.16493467174511    9.60549051397730    1.00553361027036
H        13.94640786980883    9.22133471347252    0.01200177777133
H        14.40760509625692    8.77780509596210    1.66794411556071
H        15.04564169838713   10.23739356433429    0.92838417818185
C        13.39763099235602   10.98736672035391    2.92858126969526
H        13.55300484887411   10.17689734953154    3.63740886032058
H        12.64356785859884   11.65831320326299    3.33117470952923
H        14.32624027652934   11.54398497266940    2.83887798315149
C        12.71508878770706   11.58675445844849    0.58135778488545
H        13.61633946882787   12.17860350099923    0.44841821492998
H        11.93174322211085   12.24343461544768    0.95081169869769
H        12.41268478635920   11.20222226639323   -0.39029609370566
C         6.80529347557223   13.26681165637023    4.38772113063114
C         7.02360015939451   14.18288482578192    3.17339058189607
H         6.26344053941583   14.00059802151576    2.41684068814204
H         8.00107728137886   14.03132860058154    2.72280080487381
H         6.95275534791163   15.22123319306555    3.48485286878569
C         7.89879781736790   13.51737613759114    5.43732419726209
H         7.81696628118001   14.53460763760820    5.80977069593765
H         8.89647208789017   13.39241169902587    5.02521726438684
H         7.78402567850763   12.83631484874727    6.27781161187606
C         5.44766569001268   13.59485550720375    5.01195847898410
H         5.44632766676996   14.63015309098768    5.34219596244569
H         5.25149304803046   12.96941529340645    5.87978860385935
H         4.64129851394514   13.47739970962101    4.29197948279116

