92
CSD_code = MIHLIY | q = 0 | S = 0 | Stoichiometry = C47H19ClF20O2P2Ru | MND = 8
Ru        5.83661699770222    6.18163536342449    3.05443622310364
Cl        5.59033248684702    7.27024437208621    5.16165548487353
P         7.78228489999038    5.28279002783893    3.75810635504471
P         4.72759211525911    4.53699256603154    4.11344614147985
O         8.23510000406279    5.11791062253096    5.27151597181217
O         5.63629488745159    3.73951318792996    5.15240555174800
F         8.72532734011527    7.72072648563524    4.98205319393865
F        10.77905966421808    9.38077460138765    4.33228225497251
F        12.34433772620658    8.79854640927993    2.17417481989008
F        11.81299594709945    6.58250281131177    0.67462303016568
F         9.77098881377930    4.95587054687462    1.32985037789868
F        10.26171596097740    3.62837086487605    4.37259956226276
F        10.88823344381218    1.11638105805692    3.60330302110272
F         9.27629253567339   -0.21938305497381    1.85557925475819
F         7.01859733284667    1.00569358661330    0.89267420448442
F         6.40307101369052    3.49705498871190    1.67595814442729
F         5.65568398952415    1.45917539528465    3.98387619153435
F         4.55854440879538   -0.45616488711021    2.46425586202430
F         2.44724936152379    0.10481714413983    0.83502926562223
F         1.42532286091124    2.63837296601260    0.75829360434208
F         2.54838549202250    4.57738629501157    2.35276098075432
F         2.87222482540992    6.99222633730849    4.22759171877608
F         0.95342420259817    7.56311156672399    6.05163448296750
F         0.23602016418771    5.68892892754214    7.89383680662122
F         1.38873947682230    3.21693224448601    7.83831299551949
F         3.27970777466610    2.65822019377215    5.97654878812809
C         5.31729139514956    8.18716498013652    1.97261313359642
C         4.36959484769858    7.14745176485350    1.69656456704193
C         5.04736106872316    6.12609404039445    0.97253545472362
C         6.42436939570028    6.43007588223295    0.92472120217906
C         6.60782478125498    7.73848803320472    1.51142397331692
C         7.71221139525809    8.61111245602210    1.57175120725500
C         7.54690896722116    9.84553310700066    2.14599949533781
C         6.29935985815493   10.25813643228703    2.64913125909311
C         5.18888750370767    9.45869059186670    2.56096098864691
C         7.69581529268083    4.27162481159178    6.29138027294597
C         6.16654778078963    4.34323167960333    6.35174008711930
C         8.26476145576441    4.73484556975838    7.60855032936800
C         8.82162239891821    3.82457498978987    8.49520991465346
C         9.30340154730671    4.25587165931339    9.71845575591028
C         9.23869475392226    5.59687261748162   10.05620479387372
C         8.68849329172843    6.50694830962286    9.16918309108571
C         8.19678077996534    6.07992307408899    7.94875152002833
C         5.63995753730287    3.60566976996007    7.55331240682227
C         5.70480056298592    2.21984656968498    7.61243300725917
C         5.20417277987542    1.54986631057429    8.71416721352538
C         4.64246275360569    2.25849554872702    9.76266548606131
C         4.57567011069305    3.64036075699142    9.70580197529323
C         5.06880185207350    4.31366032002031    8.60220624271778
C         9.25503143440152    6.25339992216457    3.24114793395465
C         9.51268485079798    7.41722890798151    3.95964127530337
C        10.55082908077616    8.27778478917759    3.62123054247317
C        11.34674570328129    7.98742040649862    2.51563444998904
C        11.07691962403575    6.85351546152844    1.75369249206011
C        10.03074144619899    6.01149429089125    2.11554037204778
C         8.28819967787342    3.61479834525983    3.08685970130790
C         9.43873671402782    2.98059906192736    3.54490524233058
C         9.78022005390859    1.69417490363622    3.14112877292122
C         8.96066659837448    1.00976109248373    2.24586143892378
C         7.81727673124704    1.63358417050100    1.75735559903637
C         7.50396322411970    2.91922771218894    2.18264323006360
C         4.08158115887065    3.06175599983153    3.22274152314086
C         4.60100603661151    1.77477904537649    3.22936313110545
C         4.05118032197486    0.77470379627140    2.43058818506965
C         2.97364520769263    1.05871398523470    1.59584159198376
C         2.45096494753565    2.35114508601895    1.55931781779963
C         3.01909552587581    3.32304290440968    2.36873412478196
C         3.20800541771303    4.85637346307841    5.14104216774179
C         2.56460064395136    6.08748436411280    5.14547829315311
C         1.55933951009138    6.37720804330123    6.06486150109231
C         1.18243004566411    5.41674146820635    6.99994002617179
C         1.77794952601987    4.15785656705483    6.97681066531084
C         2.76990833459300    3.89097891920416    6.04117309586200
H         3.29757092078966    7.25211794857061    1.76746386738332
H         4.57588871531629    5.28752188055950    0.47847752512803
H         7.16875147307833    5.89779685834461    0.34637001528167
H         8.66207206580707    8.31418756026524    1.14597960762030
H         8.38339633477385   10.52597070119314    2.20459826920299
H         6.21983007038593   11.23731491239102    3.09583215629263
H         4.22589276331547    9.78910005301884    2.92117736413309
H         7.99158643265449    3.23508256679442    6.08136237761980
H         5.87964240601324    5.40082963934564    6.40087675336837
H         8.87242364009269    2.77842076230967    8.23193907861803
H         9.73326276090069    3.54360944061855   10.40636947149596
H         9.61894206350660    5.93192918678808   11.00958042142428
H         8.63828908124284    7.55343317097535    9.42855910921454
H         7.76715814399074    6.78580967493354    7.25514173540886
H         6.12097137802116    1.67098038807638    6.78170672533929
H         5.24889144292685    0.47213261586590    8.75231319237927
H         4.24929846771949    1.73415119390357   10.62021123686849
H         4.13141084541662    4.19492452157608   10.51828961565347
H         5.01476334184163    5.39124432229314    8.54835063772767

