93
CSD_code = MIHPAW | q = 0 | S = 0 | Stoichiometry = C40H38CdF6N2O6 | MND = 6
Cd       -2.49871854866342    5.34259780817503    9.81121085724401
C         0.63621845154237    4.86754068908269    9.68167420806225
H         1.64838646541590    5.04865758353838    9.99771468057108
N         2.43367012350445    0.32998896217944   13.85708396295084
O        -1.12722225881127    5.71485693343184    8.32271716191861
C         0.56790798071232    2.91211026170128   11.23117998533435
O        -1.33249725077516    3.62996799350850   10.05075921061107
C         2.48109916736343    1.77602803672027   12.10080047312817
C         1.93483660573551    2.65658500602053   11.18367040296454
H         2.56077528935267    3.10488213434839   10.42853992418698
C         3.81509643179191    1.29113792340043   12.32035110995122
F         0.19578923610852    8.06946126661012    9.25996368003444
C         2.31045142219903    0.25840564335791   16.32021799353569
H         2.06929104710179   -0.42634948765347   17.13594408360466
H         3.38065265688120    0.47139822284154   16.36443426018192
F         2.07107342488873    7.08938050106441    8.84262078029912
C        -0.10672613673764    3.80948810286602   10.27622927209357
C         3.73821813505008    0.40492822845762   13.41982519558626
C         1.66443673392211    1.15378418788645   13.08165471344210
C         0.29745635781177    1.41195182019391   13.12866963297923
H        -0.33989862271741    0.95174682556718   13.86769243432978
C         5.03363476893352    1.52663983920377   11.69809910632435
H         5.09842648880793    2.20289597917055   10.85937278273588
O        -1.44725987793825    6.63411934718041   11.40958433442923
H        -2.12588868465607    6.53549500723952   12.09260747659943
H        -1.57692989641299    7.51518937867395   11.02979330479401
C         6.15456169866331    0.87707595758127   12.17527020643057
H         7.11263298490895    1.04516293080094   11.70673664655763
C         0.02562695370407    5.76853469747752    8.83977340458051
C        -0.23012798146824    2.27769421586952   12.19940122224812
H        -1.28665577052845    2.50246180280475   12.20346564464741
C         4.86912519949692   -0.24580584371654   13.89278916221727
H         4.82197776452362   -0.92674889313799   14.72910207203977
C         1.99465169323415   -0.43810529645558   14.99113776470734
H         2.49066459680887   -1.41378187945475   14.96064861334001
H         0.91843076730005   -0.60176670040507   14.90333407998095
F         0.67181886265182    7.44505289026645    7.25138418035192
C         6.07037759876442    0.00254644621551   13.25632577597707
H         6.96478679948326   -0.49183069461844   13.60577040557252
C         1.53175101491182    1.55937459046933   16.49885555444215
H         0.46042329035670    1.34748692692974   16.47458914439864
H         1.75666961659405    2.23559438208386   15.67148114733626
C         0.76712286231824    7.07967647867522    8.53400299327920
C         1.88051440585363    2.24135691575266   17.81573324387740
H         1.64887622166253    1.59121756786392   18.65682313730538
H         1.31525552261853    3.16299975617301   17.92839992250352
H         2.94058673533788    2.48278085362948   17.85153506328130
C        -5.63369198913399    5.81608975252231    9.94132820900993
H        -6.64576275170967    5.63422092953402    9.62540508100391
N        -7.43432840192903   10.35325951821137    5.76669155812873
O        -3.86956707729675    4.97023000475882   11.30030912447770
C        -5.56679216867168    7.77161317680255    8.39180698344184
O        -3.66579119265126    7.05482769168264    9.57189665351644
C        -7.48079229168487    8.90652291494711    7.52242584464761
C        -6.93392031824270    8.02608541859253    8.43930647349985
H        -7.55956847783961    7.57708141229454    9.19425620051278
C        -8.81513983710496    9.39049298786603    7.30296308244192
F        -5.19208008790687    2.61497490964690   10.36170906399514
C        -7.31070796042245   10.42619782762905    3.30359383972916
H        -7.07008862390623   11.11162537234291    2.48826988173667
H        -8.38069446378954   10.21218003642690    3.25910256296190
F        -7.06730381982198    3.59388965517156   10.78220666402989
C        -4.89149499113292    6.87459792103315    9.34662352589734
C        -8.73884652253668   10.27719496084073    6.20384639062549
C        -6.66453510014843    9.52973724782617    6.54184809259611
C        -5.29736868888196    9.27256807226745    6.49479333504600
H        -4.66032197178886    9.73350309151076    5.75595925611285
C       -10.03354103020243    9.15386339156174    7.92505579128569
H       -10.09787345452814    8.47728968361252    8.76356081158732
O        -3.55004971766539    4.05106941193756    8.21262997885683
H        -2.87085967275743    4.14857415673409    7.53000011481492
H        -3.42176440689280    3.16993827579117    8.59275552270210
C       -11.15491442405475    9.80279770439673    7.44807763293963
H       -12.11287580954911    9.63388298206491    7.91653792448576
C        -5.02241688981532    4.91565546367269   10.78332499753387
C        -4.76919443811314    8.40689406857336    7.42378675919473
H        -3.71249724730981    8.18292794588603    7.41972367528985
C        -9.87020287271802   10.92727965847566    5.73106409356735
H        -9.82351909155337   11.60853638024941    4.89497934695661
C        -6.99578867634738   11.12230234884626    4.63309576421470
H        -7.49268743064803   12.09751251190706    4.66399859019972
H        -5.91973372636467   11.28690149289483    4.72118488258889
F        -5.66575739010044    3.23771702973741   12.37134583473328
C       -11.07130488213381   10.67782026914393    6.36737832527664
H       -11.96606165005370   11.17165541527947    6.01805747599101
C        -6.53069833851449    9.12609536739918    3.12437359075375
H        -5.45958449046470    9.33901277810288    3.14907973002875
H        -6.75520215456380    8.44914298425124    3.95126039743331
C        -5.76294740573774    3.60399305023507   11.08918049115652
C        -6.87840184033686    8.44458436126626    1.80697407425282
H        -6.64709546955868    9.09545818984295    0.96636369754405
H        -6.31224495934726    7.52354037993782    1.69392212977304
H        -7.93823614159912    8.20219649677658    1.77067613043719

