73
CSD_code = MIHWUY | q = 0 | S = 0 | Stoichiometry = C35H31IrN2O2S2 | MND = 6
Ir       -1.54503296916274    4.17735708459257    8.25985419843952
S        -3.01366819493215    3.66354835758429    4.08493856994180
O        -0.51824191604261    5.81556598104780    7.19705262007493
N        -2.72485614156544    4.13673994040148    6.60636361648302
C        -4.22602713406237    4.61740900996637    4.89829077736080
C        -5.37571432739271    5.18080452520806    4.37205354009944
H        -5.60768772748335    5.07230771938008    3.32427568026127
C        -6.21035938196149    5.87503416697409    5.22645096143385
H        -7.11185697891965    6.32462378462328    4.83876976453247
C        -5.90876530826206    5.99164840885298    6.58213222402409
H        -6.58762738575181    6.52577002423841    7.22979970294636
C        -4.76484328447014    5.43326620057432    7.11049534194295
H        -4.52495803876402    5.50375990149001    8.15847478039056
C        -3.89651516691754    4.74977157025100    6.26130866623029
C        -2.15914485836414    3.51639117591575    5.59181373829899
C        -0.96805044296074    2.76567319702996    5.82791882183794
C        -0.52745107524402    2.82585907467953    7.16945530305574
C         0.61298213109833    2.09539760619928    7.47453960804187
H         0.99557709117847    2.10384424387786    8.48638345128467
C         1.29249297396149    1.34241028009110    6.52429011104103
C         0.83563516177452    1.30373685286794    5.19715576677204
C        -0.29600406235301    2.01846704717617    4.86142592624327
H        -0.66855495013152    2.00835741257029    3.84553558141202
C         1.56153870714250    0.50119585071890    4.15994977696055
H         1.59348959204433   -0.55115935377808    4.44031858368536
H         2.58929711957647    0.84715459223975    4.05422760227428
H         1.06752736115627    0.58686797747528    3.19557262639360
C         2.51675902084279    0.57414734333146    6.91700133183214
H         2.37775143495326   -0.49011635062827    6.72860364123896
H         2.73670396956180    0.71358035999792    7.97211144856082
H         3.37839492194135    0.90201598738033    6.33598638939337
C         0.12132537505272    7.96428904360062    6.45031829412036
H        -0.53466116748765    8.63904516833098    5.90452472311233
H         0.80116954269223    8.56179493198389    7.05526308393386
H         0.69718803997094    7.36942105214974    5.74506803935087
C        -0.69492111439658    7.04863605502333    7.34750213903450
C        -1.54446797103615    7.67942588688509    8.25982113656851
H        -1.54428291533809    8.75952558176956    8.25984296327822
O        -2.57155330534322    5.81590354643432    9.32235905626765
C        -3.21141181342148    7.96481004432898   10.06819023228763
H        -2.55573326094554    8.63850770662563   10.61556383077994
H        -3.88957458277061    8.56344146220068    9.46255496294864
H        -3.78906228255985    7.37014808310826   10.77205053394098
C        -2.39460438233126    7.04891741377619    9.17178690747292
S        -0.07675294747722    3.66380223206211   12.43481609977632
N        -0.36507614801617    4.13657198529446    9.91325879515400
C         1.13571466365249    4.61760376633738   11.62156424994360
C         2.28525291861012    5.18115357935082   12.14795599899535
H         2.51699434174494    5.07284750168263   13.19580308426315
C         3.12004164290649    5.87528613455487   11.29362207714003
H         4.02142027510797    6.32500648424447   11.68142281102320
C         2.81871863675834    5.99167128640328    9.93785923052119
H         3.49770625963715    6.52569020843949    9.29023887232922
C         1.67492087879002    5.43317284570231    9.40935184193992
H         1.43526273080212    5.50347885031057    8.36130638276612
C         0.80646008636816    4.74975392578810   10.25846431955884
C        -0.93094601477817    3.51632694557477   10.92778819852411
C        -2.12201445428215    2.76558035598250   10.69161612171947
C        -2.56254999172415    2.82573966465985    9.35006952591851
C        -3.70303078631358    2.09537395927113    9.04494899679672
H        -4.08571987514975    2.10400186755483    8.03313204309818
C        -4.38256962707016    1.34237366281843    9.99515245953289
C        -3.92565281215262    1.30353462730815   11.32225984851079
C        -2.79404625751103    2.01829112653640   11.65804888139404
H        -2.42143902521620    2.00804015734803   12.67391805251099
C        -4.65141332217136    0.50072236143569   12.35935370562810
H        -4.68332829157627   -0.55157322261068   12.07875138357671
H        -5.67917974468569    0.84659832683928   12.46525140950406
H        -4.15731099126035    0.58620877755727   13.32370024602616
C        -5.60690838892889    0.57424664279148    9.60241431698138
H        -5.46789321302795   -0.49007869699773    9.79047989513472
H        -5.82702575215487    0.71399959634695    8.54737899768370
H        -6.46843509345872    0.90197909885465   10.18367609845151

