118
CSD_code = MIJCIS | q = 0 | S = 0 | Stoichiometry = C46H67N2O2Ta | MND = 7
Ta        9.93782298731604    7.50923583740003   11.57379267031055
O         9.53485120722085    8.78460162321328   10.31001146380681
O        10.02073643787600    6.20431741697116   12.86646845569975
N         9.95783458018778    9.04385946722873   13.15455094320716
N         9.97646667467108    5.97959314821007    9.98915773214329
C         8.66436175587348    9.77621544032316   10.22757797207617
C         9.00097838882535   10.99754270917897    9.60262541793997
C         8.12285728674580   12.06111277692949    9.71227894197201
H         8.38697963920279   13.00350887796793    9.26519408354887
C         6.92017475314416   11.97321635113027   10.40736057373290
C         6.56957261592179   10.74142335299199   10.92826543437451
H         5.64532581452589   10.63925589052057   11.47061891213884
C         7.38969815099448    9.61731149929598   10.81987931502759
C         6.89400227453568    8.31938850681421   11.33724970796124
C         5.50811510319246    8.12642518856057   11.38540025904864
H         4.83537853909070    8.84057862243974   10.93366624471315
C         4.97953707592440    7.02050454014721   12.01877826287505
H         3.90767227132165    6.91454132462255   12.11434059795460
C         5.81565365768412    6.05009670446973   12.53139301491369
H         5.38476255708685    5.22797310529751   13.08382459920307
C         7.19913946108927    6.13099058519934   12.33226874483435
C         8.01993792947660    4.96512362970688   12.73838679748804
C         7.43244207965004    3.70343239213663   12.76852115286223
H         6.42469652305047    3.60229170651972   12.39775600261419
C         8.09805686587801    2.57201221613251   13.21449337625439
C         9.39392326775510    2.73164899443957   13.68560743305257
H         9.91384138058945    1.87749975972475   14.07738061692896
C        10.05450974562147    3.95058199278090   13.64113390473805
C         9.38707695765670    5.06680064414595   13.09545142381877
C         7.74776510624486    7.29398992381683   11.77129297989551
C        10.33190682958643   11.13421251997237    8.86825389460124
C        11.47793768617667   11.05050583266304    9.88641501660019
H        11.46533439851464   10.09055899309242   10.39811355573451
H        11.37597153973604   11.84177692231916   10.62723676231250
H        12.43646204273439   11.16750810232520    9.38346017942032
C        10.46145310699630   12.46513755353727    8.11804450827322
H        10.48128800388125   13.30818143199264    8.80479410436382
H         9.64549994231527   12.59742958247208    7.41122894336922
H        11.39555513375729   12.47114706590998    7.55921890918792
C        10.46737288644579   10.00767102217652    7.83349454342760
H        11.41537380247276   10.09535866227813    7.30528927943322
H         9.65849548892952   10.06884031944293    7.10754525329995
H        10.42881758875567    9.03432823988879    8.31607868550269
C         6.05887145679231   13.21820810969968   10.56499129677251
C         5.66155254796502   13.74129254830378    9.17769705590536
H         5.11250006172720   12.97637725073620    8.63276474957482
H         6.53457693895601   14.01505525613822    8.59203948179878
H         5.02728301522925   14.62041186350178    9.27405293696847
C         6.86601882934717   14.28942151327433   11.31253239110378
H         6.26543831171065   15.18633053188647   11.45126108186722
H         7.76347896705101   14.56201292457344   10.76432164641396
H         7.16483338219221   13.91791003467683   12.29062506904833
C         4.77579494899043   12.95346653624475   11.35749310552667
H         4.15076898628779   12.21928884061772   10.85491019094450
H         4.20560936721633   13.87664999884639   11.44390130406147
H         5.00162158093526   12.60235064252145   12.36162386356229
C         7.39462051260576    1.22302502999161   13.16294049909708
C         6.10229423716558    1.28852659151969   13.98866651172431
H         5.41324820308654    2.02628844151747   13.58807195782526
H         6.32899436222870    1.55742915590310   15.01819782788206
H         5.60353131407923    0.32120724222258   13.98535889398949
C         8.25352995222824    0.08391867740887   13.71915484127483
H         7.70111064791251   -0.85172430314632   13.65438114213716
H         8.50133394483259    0.25571675507953   14.76397825123079
H         9.17203977512574   -0.02900992915317   13.14795568647143
C         7.06040927761916    0.89728209720749   11.69996946821506
H         6.41362232486645    1.65427968219703   11.26548180801159
H         6.55513109746447   -0.06431154801565   11.63343467032488
H         7.97316446470041    0.85045000697770   11.10937406648627
C        11.49610559494251    4.09054852801497   14.12365714262651
C        12.01229900707305    2.83074568118382   14.82896254417595
H        11.37879373191267    2.56631251964924   15.67242718273129
H        13.01549481522220    3.01908767127825   15.20718415726714
H        12.06919184845268    1.98699509641047   14.14536152850165
C        12.40487942617789    4.36332738516251   12.91647831151566
H        12.32911869350916    3.54564642542582   12.20165733451081
H        13.44157705967774    4.44768993280935   13.23826572743858
H        12.11561538519058    5.28737972740652   12.42042045048403
C        11.59399190084501    5.25075608249232   15.12511540222012
H        11.28469889855496    6.18547469967887   14.66419065264311
H        12.61943217612553    5.35937961819176   15.47450593300663
H        10.95343185677117    5.05712557001133   15.98373214557412
C        12.39514104393213    9.54582835501343   13.28006420254771
H        12.24530274357632   10.59072943132811   13.54931544028087
H        13.17844755625154    9.48535895929242   12.52656848542327
H        12.73481228588952    9.00026282966745   14.16090001497515
C        11.14828300016306    8.88494166479032   12.76621970560617
C         9.38257769697622    9.90004707434646   14.20087860153276
C        10.17075763259606    9.81652154370271   15.51535856728701
H        10.37750911957674    8.77563072808433   15.75667626477390
H         9.57643115563818   10.24387780426364   16.32004085807151
H        11.10904785377967   10.35998803378566   15.46670138466034
C         9.31254420358263   11.34223324804047   13.68348745539980
H        10.30614149180458   11.75171297710647   13.51710561146133
H         8.79764320755028   11.96885108086242   14.40848395701338
H         8.76870394555926   11.37060973782810   12.74131057844905
C         7.96297914849797    9.37805855866668   14.44616631506692
H         7.37137911651162    9.46582690547662   13.54032238767201
H         7.48006290045513    9.94438950193558   15.23926316879514
H         7.99850494665986    8.32830000712379   14.73065556113462
C        12.40240815122010    5.96263856760960    9.42125052749702
H        12.41610688900947    4.90278248621382    9.16979126908719
H        13.28039032104858    6.19317148357361   10.02192775316776
H        12.46418181639007    6.54395570577575    8.50092869152023
C        11.16228007461369    6.37708268302460   10.16014661601756
C         9.40355455281515    5.00369196634000    9.05201054006966
C         9.91323159954428    5.20794609757774    7.61870773599432
H         9.86568415624698    6.26308568326239    7.35635627623587
H         9.28065612759323    4.65379904031635    6.92871529649907
H        10.93320965715103    4.85911649485948    7.49202328886914
C         7.88860712874441    5.23218562052025    9.07129297561668
H         7.49707068644018    5.05134407552909   10.06736186272390
H         7.39328376311055    4.56367732190492    8.37088645194439
H         7.66569478176828    6.26169169400036    8.79811598646672
C         9.71072819658008    3.58836563022782    9.55690136986237
H        10.77865899028505    3.38386659705460    9.53540127583309
H         9.20524411749253    2.85634282705683    8.93094669058891
H         9.36119149947680    3.47853421902328   10.58157785027444

