70
CSD_code = MIJDUG | q = 1 | S = 0 | Stoichiometry = C38H22IrN6S2Se(1+) | MND = 6
Ir        9.76909258850087    9.34922214193907    3.59626381085014
Se       10.17691750774865    8.47180180330041   -4.06948728856611
S         9.40797529029306    6.19153575860459    6.77831250680417
S         9.87994481288542   13.16766777037231    5.96996560162269
N         9.62782814287802    9.76412988214359   -3.02195007317386
N        10.59263722780853    7.45313166392857   -2.70620644718786
N         9.30216199497822   10.37594912513516    1.76317091980852
N        10.39026829792854    7.93129363135929    2.10090115817355
N         8.01682942242267    8.27878391075964    3.66565328929905
N        11.52049308377427   10.42464488218381    3.56907189568429
C         9.77004925648585    9.39826480126123   -1.76182366145053
C         9.41606897431309   10.20606871766671   -0.62954802982467
C         8.86842191256674   11.48673110038856   -0.75083386659586
H         8.70759372052819   11.89553562099883   -1.73570890628531
C         8.54973978332877   12.18181148178082    0.39656440940171
H         8.12407295274713   13.17073023920870    0.35091518978693
C         8.78160453799845   11.58440797123064    1.63188374437149
H         8.53177395332985   12.09669934414097    2.55041307462419
C         9.62632410653402    9.67893896741371    0.66005159740194
C        10.19470162166038    8.35925851746322    0.84133295374443
C        10.90208699909785    6.72847035717598    2.30042778220127
H        11.04456588234061    6.43759270754115    3.33176458029810
C        11.25371476640546    5.87053443816214    1.26262496185818
H        11.66511719740039    4.89986187310124    1.48574251295335
C        11.07130250482045    6.28799594869149   -0.03878368360936
H        11.33050190665854    5.67026112254326   -0.88388397216557
C        10.53392356163018    7.55836662295319   -0.26711164605806
C        10.31672950917513    8.08883489805327   -1.58292581934627
C         6.97179680226519    8.41063859023412    2.85017937421061
H         7.01087336587569    9.21745512462959    2.13092462745119
C         5.86655762068669    7.58568033418086    2.90503867617421
H         5.04512662193718    7.74028099765669    2.22525051217955
C         5.83381122687969    6.56531603584966    3.85258376557797
H         4.98238331686223    5.90651679117255    3.91791341574422
C         6.90368236156795    6.41986128473046    4.70726817427358
H         6.92615105434707    5.65237564235358    5.46433831296468
C         7.98944469599699    7.29405547931266    4.59969644602768
C         9.14470177292069    7.28147264772590    5.43730497831515
C        10.14403743572270    8.21039034954954    5.23831147111647
C        11.17376004941158    8.05537391397244    6.21540561277068
C        12.35271668439430    8.78983768177984    6.39744981026282
H        12.57295395749039    9.61079152330096    5.73521680656137
C        13.21412499158436    8.46914385853525    7.41983264962159
H        14.11887343173086    9.04142472973869    7.55734139025387
C        12.93584630595990    7.41279311333036    8.28904780797944
H        13.62604840421409    7.17929132394386    9.08457629040685
C        11.78406143555430    6.66977337497612    8.14325925768130
H        11.55505666513448    5.85522517640600    8.81227692522248
C        10.91139719493675    6.99410306759614    7.11506117568400
C        12.63241741666803   10.11733664596044    2.90298868083133
H        12.64926701423488    9.16463071739415    2.39126328960118
C        13.73711489402928   10.94383193086108    2.86191221146785
H        14.61382578338813   10.64369339172532    2.31230893817240
C        13.69660724197744   12.15701457390974    3.54493587202960
H        14.54577387323955   12.82178982397251    3.53017816604385
C        12.55678594948788   12.48631279463398    4.24393042247686
H        12.47543066142287   13.40866932899986    4.79648454118448
C        11.47548269707116   11.60003114899187    4.24673538508016
C        10.25028613377618   11.79617083979124    4.95146267444592
C         9.26205700655305   10.83692035322429    4.88598534964133
C         8.14961472860415   11.20751212008259    5.70096530981889
C         6.94945725855582   10.52588148591189    5.94076255411770
H         6.78047423170252    9.57016888741770    5.47266782484120
C         6.00175606530404   11.07058557026016    6.77460785922165
H         5.08052617263437   10.53894436249587    6.95803981446700
C         6.21274248242228   12.30417559555209    7.39314972296726
H         5.45510408409612   12.71245638751090    8.04357081298227
C         7.38287613315684   13.00209283027334    7.18438064322476
H         7.56000461515500   13.95318370958897    7.66141266118506
C         8.34204864480821   12.45287116096222    6.34638319109870

