91
CSD_code = MIJFOA | q = 1 | S = 0 | Stoichiometry = C46H39CuN3P2(1+) | MND = 4
Cu        8.06038801290866    1.61537681171282    5.49763225658171
P         7.67416322850571    0.75869734806960    3.42236969052574
P         9.91641874798897    1.09224939632206    6.71105352423507
N         6.35292914645396    1.42695453445759    6.65008873236439
N         5.83492251829946    3.72236648257739    6.82599454975518
H         5.16414311701233    4.36109903207097    7.23337507294768
N         7.79150555240617    3.66557597153032    5.50828300322387
C         8.74799420334175    1.48803390482333    2.14592497884194
C        10.08290426458616    1.67497943601505    2.50047140636853
H        10.41349977969339    1.37424289644877    3.48761607265523
C        10.97312403727168    2.23143789197716    1.60234676418979
H        12.00721605451228    2.36468755528133    1.88405774906208
C        10.53069451966212    2.61892740496454    0.34702539116691
H        11.22161749131872    3.05702627766234   -0.35691021616126
C         9.20115939188918    2.44860795094896   -0.00358555539938
H         8.85822475762713    2.75490401925428   -0.98039984033371
C         8.30610720553757    1.88621478621363    0.89023385927772
H         7.26994043008393    1.75901998589860    0.61175992933455
C         7.92834112216233   -1.03185180388198    3.20908430092002
C         9.09184521821608   -1.56477790946265    2.66486525559022
H         9.84993330634421   -0.90953794653879    2.25981804824288
C         9.27332984844538   -2.93679371008911    2.63663537534215
H        10.17392743483667   -3.34745214819706    2.20550309401164
C         8.30655923417303   -3.78117318468707    3.15660348937948
H         8.45271790362837   -4.85030007214039    3.12997757137958
C         7.15059976659658   -3.25302449646092    3.71176778439671
H         6.39591162023499   -3.90961521221114    4.11870503474250
C         6.96399209123449   -1.88478625816800    3.74653232630461
H         6.06577560389624   -1.46443415872727    4.18147110512118
C         5.99876277854691    1.00062025383222    2.75598115385712
C         5.44586707869565    0.18758671173584    1.77052170334150
H         6.01434010266227   -0.64078258624591    1.37102800539675
C         4.16849267930073    0.44457122549848    1.30690658214952
H         3.74013317753627   -0.18451588959697    0.54114277419706
C         3.43878116229534    1.50617238533288    1.81901736702415
H         2.44192103473682    1.69987156670697    1.45347041459555
C         3.98714396168825    2.31870146444942    2.79826205970417
H         3.41817079602619    3.14700608855404    3.19443405077614
C         5.26331489398619    2.06565635861826    3.26622229118773
H         5.70923213822085    2.69000377078189    4.03004713182006
C         9.86943990658573   -0.59890841116852    7.38308041709577
C         9.39534173776347   -1.58806435017485    6.52320691406000
H         9.09723041413223   -1.31451028991975    5.51802094437863
C         9.31198879093935   -2.90054443112231    6.94650131584623
H         8.95105265550783   -3.66099575068442    6.26982582052545
C         9.68817694523631   -3.23078829911735    8.23923278994701
H         9.62175003417402   -4.25415566519206    8.57558740585707
C        10.14500758145839   -2.24759128789085    9.10191078881482
H        10.43321444056252   -2.50657303554284   10.10960798215045
C        10.23643217455581   -0.93196702531818    8.68116513642157
H        10.59061054977598   -0.16946868264221    9.35978102038348
C        11.51287033192095    1.15311418592211    5.83710127946604
C        12.13998001487168    0.01721483196617    5.33691353674351
H        11.73066690967979   -0.96196250236315    5.54135888264590
C        13.29397355255957    0.14356261333749    4.58281136293737
H        13.78337614065240   -0.74084649144747    4.20345314419686
C        13.82153300735830    1.39586661968182    4.31553293351799
H        14.72275319576188    1.48795073684785    3.72864984730583
C        13.19172438485323    2.53184909014363    4.80173724293173
H        13.60073565381495    3.50942683265480    4.59357171336519
C        12.03812554955526    2.41385040317795    5.55224183265758
H        11.53831265774840    3.29599946603256    5.93266981621486
C        10.23420192075967    2.12240721779012    8.17654425105682
C        11.49651887978432    2.26862950068363    8.74493814486119
H        12.34750561790349    1.76375455586501    8.30921096228811
C        11.65542581157851    3.06123237468877    9.86703663274982
H        12.63386700355699    3.17286821167119   10.30954290013176
C        10.56480899458019    3.70929872058167   10.42590153142448
H        10.69656170990097    4.32760745110208   11.30065369169277
C         9.30666163281463    3.56386630650898    9.86402886022037
H         8.45747947471499    4.06751913432478   10.30220739714635
C         9.14226638936181    2.77323273989632    8.74174666779189
H         8.16697821441350    2.64602486749645    8.28948780818143
C         6.02572369229764    0.16104906319307    6.89750461504696
H         6.75322631036019   -0.57332449595819    6.58035530354040
C         4.85543520851213   -0.21004966539558    7.52221358536269
H         4.63400970651276   -1.24858364014669    7.70113892949807
C         3.97541627711332    0.79432763270125    7.91595340112654
H         3.04638838132460    0.55105011562109    8.40758655203268
C         4.31097061261057    2.10730998938187    7.67413028223473
H         3.65509942562253    2.91042353294698    7.97366006214146
C         5.52405754706171    2.39579308789525    7.02902971413497
C         6.87663132891048    4.35520166385681    6.18409464148468
C         6.92046295757634    5.75688633210545    6.24921477745252
H         6.16580656854116    6.29495952759743    6.80224419762316
C         7.93340289801686    6.42728731269945    5.60148982059489
H         7.98708230775085    7.50406940175474    5.64176617168105
C         8.87986687686683    5.69462052579494    4.89043932284431
H         9.68236625895664    6.18155416860880    4.36270756634990
C         8.76065063989743    4.32236746266193    4.87556293729532
H         9.45798531031271    3.70171221122559    4.33001285709781

