66
CSD_code = MIJJOH | q = 1 | S = 0 | Stoichiometry = C21H39FeN4S(1+) | MND = 5
Fe        2.52174451103983   17.80803047771996    6.84718087625321
S         1.73890188003461   19.01927430853446    8.55539390372478
C         4.25496089472508   20.22960638649882    7.04825774019721
H         3.79779468096227   20.30334638862757    8.03767270682677
C         3.28883754448849   20.85886641517755    6.05163450169774
H         3.71926687686024   20.93319937813094    5.05708980991177
H         3.03574694445107   21.86145152403135    6.38211478151829
H         2.36821251797550   20.27624158755828    6.01696328945547
C         5.57003670069245   21.00945712589201    7.08833937249329
H         6.26763770971888   20.58531697839163    7.80371742504277
H         5.35530049615336   22.02680625301148    7.40160943904312
H         6.05393199681184   21.06346614314015    6.11645730208051
C         1.89418717803531   16.88653996992448    4.10452286306375
H         1.30631554139198   16.07638141649429    4.54592003111226
C         2.21534768652043   16.50203390677811    2.65732047126453
H         2.72509447358216   17.30767098395060    2.13675836208322
H         1.28425419328277   16.30454865017915    2.13330996688937
H         2.82760970961509   15.60669893308455    2.59203816910952
C         1.05897672055953   18.17138913500632    4.11147213024904
H         1.16687951964442   18.70039486522080    5.06097135028697
H         0.01036874221847   17.93706535578398    3.95141411913683
H         1.36267279113789   18.84304301994244    3.31308735351802
C         3.02076736716959   15.59887365611736    8.95275838689985
H         1.94066222507976   15.53277435102244    8.79733939467564
C         3.25587369702982   16.49444517158711   10.16449969348068
H         4.27542984367079   16.42856932568512   10.53287405434203
H         2.59340965641750   16.17598689107888   10.96441662609401
H         3.02383664095463   17.52742864553014    9.93525532508542
C         3.54383392643043   14.19378752630358    9.27704346224845
H         3.14580485561755   13.43654794110614    8.60768869801048
H         3.23269525362669   13.93289049114069   10.28432452059185
H         4.63027067047389   14.15545849561510    9.24587943313186
C         5.02306623660764   18.49101852523691    5.49270990173604
H         5.79552077686527   17.73440407339526    5.62779330991482
H         5.52351027027650   19.37732024665064    5.09898659625614
C         4.00750047243701   18.02853691768728    4.44902416062339
H         3.41652626489466   18.88482465566629    4.13443695923793
H         4.54852529102573   17.64179771350963    3.57678184474964
C         3.73503893927524   15.74184791581090    5.22784449152502
H         4.81149674476587   15.86106579678404    5.11099722806219
H         3.42434180466235   14.98994755786810    4.49750874545632
C         3.41309321497667   15.18887363767065    6.61570953971226
H         2.37491346559318   14.85586089699983    6.63596653412345
H         4.05320913814399   14.31393960481552    6.77774747401285
C         4.96903421400036   16.59923854484224    7.84136926600153
H         5.56073885645192   16.19945394073443    7.01844877627876
H         5.40399941736361   16.19882704875361    8.75815870051818
C         5.09083371986486   18.12158311912783    7.89230414368995
H         4.63522815433777   18.48136892280997    8.81290540987878
H         6.15526829881411   18.38519405543265    7.90371093022185
C         0.46166954720470   18.00479938431506    9.15336058001395
C        -0.10610931842867   18.16718235246849   10.41293305031754
H         0.19855497648122   19.00239348636407   11.02363237091975
C        -1.03482302770963   17.25260487151198   10.86820419762789
H        -1.46878857180024   17.37637946741158   11.84781030978283
C        -1.39983061063815   16.16719064100934   10.08439175094762
H        -2.11211162573595   15.44660472899641   10.45298634104823
C        -0.86234100136408   16.01573712825543    8.81737440065153
H        -1.15891968773209   15.18297713581187    8.19395943804593
C         0.05393358619491   16.94081353041322    8.34687709184515
N         4.38553565339126   18.77777970235499    6.78575476769298
N         3.07552778801508   17.03031167159630    4.98455550253386
N         3.56716069584898   16.17442682007673    7.69428451294315
N         0.60439293285291   16.88709852655736    7.02073068312250
H         0.12482255264644   17.59917663911780    6.46742591479419
H         0.37291738403438   15.98752904168455    6.60368951620329

