69
CSD_code = MIJJUN | q = 1 | S = 0 | Stoichiometry = C22H38F3FeN4S(1+) | MND = 5
Fe       12.18813807801535   14.38177765914431   12.09488453775702
S        13.07601215478686   12.48589081078372   11.27079468671633
C        14.60575927197659   13.80856937789426   13.71635959670420
H        14.83705127001998   13.13540898084658   12.88768290038103
C        15.91954434168716   14.12571801745845   14.43167154499848
H        16.62068230817163   14.63566254607222   13.77814555068827
H        16.37683736661551   13.18937571706364   14.73785579865885
H        15.77520464013385   14.72498973155617   15.32717543372400
C        13.65040050206553   13.07342886819901   14.64863165903849
H        13.46114877698991   13.63085245224626   15.56140277305413
H        14.08469172316741   12.11782715849752   14.92535609701354
H        12.71176368720253   12.87534488244903   14.13069710931333
C         9.87004843792757   15.48607881526586   13.54625182542780
H         9.32221429054354   15.50034391015703   12.59970850093071
C         9.15818241212998   16.43369291598843   14.51561255214420
H         9.61103437673390   16.40675785451969   15.50248304457769
H         8.12376047964003   16.11686746151009   14.61618964741770
H         9.15547097407374   17.46188041118474   14.16429712248959
C         9.84386284591698   14.06506093005346   14.11974862001810
H        10.66398864742497   13.46557525186538   13.71879941784714
H         8.90043046747237   13.58252358208834   13.88090953672073
H         9.93146046115245   14.07608488640749   15.20276614175663
C        12.69234059506999   15.50717133554352    9.24672313896006
H        11.80570889268468   14.88641520763353    9.09534045363483
C        12.60735469441240   16.69768569322971    8.28339986908061
H        11.62469332001169   17.15976364482407    8.27686525701782
H        12.80238799840223   16.34035626882335    7.27665495770982
H        13.35255468291971   17.45455658255662    8.51654086482418
C        13.91234267094281   14.67190866797360    8.87160383288094
H        14.80477690642095   15.27971222156738    8.75493112258948
H        13.71851752954024   14.18616224560873    7.91944715221364
H        14.10067810366430   13.89821595781744    9.60571303184859
C        13.57373472788944   16.00903094512956   14.07792812314617
H        13.87001648779534   16.98434606448471   13.69331720202979
H        14.12020810457003   15.86487491298674   15.01125328488959
C        12.08143847639164   16.00131808317394   14.40391673785223
H        11.86423738755144   15.14120021619185   15.03195877337448
H        11.83680615856981   16.91034609614905   14.96605625818291
C        11.28451443103402   17.10494480293729   12.38880466174138
H        12.05074834343778   17.77448071163306   12.77727284464398
H        10.33747498532270   17.64721607403951   12.45009018493948
C        11.54333873747735   16.80417034530947   10.91361582120176
H        10.65869563662016   16.33496684328728   10.48230579226647
H        11.70050606245199   17.76195449700633   10.40533525112859
C        13.94450634328842   16.47874723400520   11.12204433451453
H        13.75337123324057   17.40932739677059   11.65508788112473
H        14.56751815605166   16.73575687549404   10.26457682638396
C        14.73449022298086   15.51364751440859   12.00365051988672
H        15.05896950263136   14.66811290127576   11.40027331830109
H        15.62291727108080   16.03234178031706   12.38233242371553
C        12.02216367643928   12.15161664655071    9.94407452626407
C        12.35249508440756   11.27046723673746    8.91601381413550
H        13.26469776916788   10.70005493142502    8.98509738682485
C        11.53270814924856   11.15505297297052    7.81294807003432
H        11.79365045837924   10.48635381686269    7.00849156779551
C        10.37363240117735   11.91910014585534    7.72862284858752
C        10.00636991233512   12.76855749297657    8.76653021195168
H         9.08926617200789   13.33657238519532    8.69773473127745
C        10.82092333842901   12.86886787439217    9.87642047410242
C         9.49879117132549   11.87958332225986    6.51050575327161
N        13.92285206499973   14.96924818949517   13.09830711540553
N        11.25419075230706   15.88084718626085   13.19836563214565
N        12.66854635957929   15.88637957349906   10.68634888799432
N        10.48571347324633   13.67730611269876   11.01065631450654
H        10.17955117658520   13.04572442212354   11.75270462017230
H         9.68661509718077   14.26242351339321   10.77543536483358
F         9.64443635907002   13.00057578119897    5.76947172296496
F         9.75419294908402   10.84980485714992    5.70344383071949
F         8.19306845872945   11.82052019752026    6.82866310954117

