61
CSD_code = MIJKUN | q = 0 | S = 0 | Stoichiometry = C26H23ClF3O6RhS | MND = 8
Rh       -0.35688891369229   15.43743009008391   14.76003420305378
Cl        4.88295111754043   19.82581774562766    9.44796494243699
S        -2.63246287123732   15.22038193341125   12.87872264120247
O         0.51048543325427   17.05554048414459   13.83817846009261
O        -1.87190715833298   16.90291904038781   14.91094474977301
O        -1.10152223397750   19.87082814896721   12.26768899070471
O        -1.16220384977136   15.21571511440146   12.77328907037074
O        -3.27227433086358   16.41115202735220   12.41386386902236
O        -3.12313052563705   14.60078869027810   14.08033722563648
F        -2.60025355787293   14.32950920162857   10.34615458790048
F        -4.30826399419563   13.64124213697318   11.46875667812228
F        -2.36229289857520   12.79371463047618   11.83932087785016
C        -0.37285105240793   17.93933664142310   13.46304146575600
C        -0.13922629890540   18.95343880264301   12.54454964318047
C         1.09162370432563   19.15155866771321   11.79496517297846
C         2.13621027148776   18.22257388754169   11.84373172604038
H         2.02216122152201   17.33745259639591   12.44715322257235
C         3.29429257732764   18.42604120734959   11.12171124510707
H         4.09540255249808   17.70446186893861   11.15973568279172
C         3.42894016546503   19.56566567974076   10.34282428783953
C         2.40523650968587   20.49917190656177   10.27519704068378
H         2.51813759310556   21.37989480148353    9.66227304452752
C         1.24710426520962   20.28991602128050   10.99385169447064
H         0.44948287132673   21.01349616555065   10.93921955567340
C        -2.29916648569324   19.83678200388926   12.86100631973255
C        -3.23443921052391   20.81788011201285   12.50789594140851
H        -2.95837492761457   21.55668953711353   11.77242080018219
C        -4.47788952558069   20.81136901330225   13.09050421665251
H        -5.20064571766917   21.56347653751866   12.81165120127175
C        -4.82507613737070   19.83540957090453   14.03041248003368
H        -5.81249971756737   19.84336315982037   14.46514283165690
C        -3.92042260755758   18.86946237238515   14.38596389936337
H        -4.15953775871142   18.09060302324082   15.09203258253445
C        -2.63981367075227   18.86027057260791   13.81139368837450
C        -1.66749202734581   17.85355372282380   14.10568668715145
C        -0.42327713835966   13.33115516290881   15.41591461530284
C        -0.82537650822954   14.17924300372605   16.47455373813402
C         0.25727410535428   15.10315949479584   16.74922211069306
C         1.34676525515214   14.76952218299712   15.87469798416457
C         0.90133809030545   13.72600989095283   14.99658764019665
C        -1.22950137863195   12.19395298935044   14.89139821040398
H        -1.28924962033904   11.41144190957664   15.64957187619471
H        -0.79494397742749   11.77968100135825   13.98702630284680
H        -2.23961263471801   12.53441195244882   14.66953928577579
C        -2.13216825116584   14.08018197095050   17.18446699621548
H        -2.93765575944942   14.22698276954914   16.46408429650367
H        -2.21511535040246   14.82593645408096   17.96918807765550
H        -2.24128434100949   13.08728372435219   17.62053964519422
C         0.31798385119360   16.06027796910622   17.89714451334206
H        -0.63718484674505   16.56304200129143   18.03007068688486
H         1.08650118376508   16.81101313223531   17.73344339920396
H         0.55228166253507   15.51636377106688   18.81377654232474
C         2.70265572701256   15.39578520693096   15.91960975065055
H         3.17019765423895   15.17819217237691   16.88045117902291
H         2.63150046726636   16.47631931275074   15.80758336606800
H         3.33667315227600   15.01148564546909   15.12656658700896
C         1.71314118547348   13.01423943420552   13.96240347248590
H         2.55986499884011   13.61670220114484   13.64557936081763
H         1.10218858721326   12.79885045333926   13.08833288606355
H         2.08334995878101   12.07153103501014   14.36897409523379
C        -3.00753888377506   13.93502804203751   11.55335265552926

