61
CSD_code = MIJLAU | q = 0 | S = 0 | Stoichiometry = C26H23BrF3O6RhS | MND = 8
Rh       -0.62252153027010    5.48492142324487   14.80441317047745
Br        4.72036307077817    1.09751687575140    9.36976759359507
S        -2.88085816787556    5.67298802074968   12.89867655897623
O        -1.40965424456880    5.67468316425627   12.80660146514068
O        -3.38040200275492    6.30554479294586   14.08943998342546
O        -3.51409790024598    4.47538960093486   12.44230317925005
O         0.24448194817194    3.84878242716386   13.91365040968861
O        -2.14123914462138    4.01747770219774   14.97426273267756
O        -1.38611920487715    1.05742614560019   12.31855852564021
F        -4.53793252161444    7.24236655333458   11.45561405911172
F        -2.82927738480505    6.52044454433712   10.35565161293763
F        -2.58735754644731    8.07992315522494   11.82372964564627
C        -3.24071960294375    6.93980518049738   11.55278582233097
C        -0.64405686050023    2.97458480186696   13.52988774932276
C        -1.94029959623311    3.06515875958566   14.17187847575645
C        -2.91670113317636    2.06346886908137   13.87314499399723
C        -4.19801788431038    2.05816917947672   14.44622091149808
H        -4.43334608032831    2.83337877920596   15.15744401207118
C        -5.10881959537769    1.10129666469664   14.08197160298873
H        -6.09699456172989    1.09682467729655   14.51516985918478
C        -4.76730086832542    0.13060037296521   13.13444203930902
H        -5.49426874822983   -0.61505608677160   12.84977967872323
C        -3.52307544108010    0.11996709035983   12.55361711529792
H        -3.25098597432178   -0.61517586822653   11.81276638235317
C        -2.58211106092342    1.09249551506979   12.91508142157836
C        -0.41930912407839    1.96916806754138   12.60070608437256
C         0.80520392682101    1.77713484102385   11.83991868736544
C         1.85849138930922    2.69569630027894   11.90545048302235
H         1.75682492241695    3.56780229118309   12.52950800716040
C         3.01036852055544    2.49950035394184   11.17179437865824
H         3.81883116520326    3.21285982023303   11.22227522032813
C         3.12423413668679    1.37776631688537   10.36694755908503
C         2.09521203879821    0.45441803588375   10.27887614743390
H         2.19629995637387   -0.41287539477819    9.64431891326899
C         0.94351733564428    0.65722891893759   11.00967289578450
H         0.13909454033775   -0.05743774365301   10.94176356617375
C        -0.00580665023030    5.85064225854903   16.78740947612486
C        -1.09484527420818    6.76340965602898   16.50081144684727
C        -0.69965426857335    7.59918790128655   15.42974365503704
C         0.62672713403563    7.20640598492224   15.01406781359133
C         1.08032689913040    6.17871201013671   15.90648510570485
C         0.06429804845575    4.91188906474965   17.94984325426582
H         0.83840967940419    4.16470489639377   17.79601377314546
H        -0.88669771609301    4.40382018227449   18.09261704797353
H         0.29604350481496    5.47170362815091   18.85761864794134
C        -2.40172575992947    6.86317291931951   17.21016876538577
H        -2.50968232726474    7.85606165049846   17.64708161904896
H        -2.48585220962310    6.11671687223842   17.99422678730981
H        -3.20708595201754    6.71803130386548   16.48952051529041
C        -1.51194265503520    8.72515218830848   14.89094207146357
H        -2.51944151851442    8.37611127228860   14.67055402276617
H        -1.07801822425677    9.13205262587307   13.98292278011712
H        -1.57793507084187    9.51547189072648   15.64039285687635
C         1.42976737366257    7.90617554664313   13.96523445270415
H         2.28788884833871    7.31101636841403   13.66556716399647
H         1.78194340714252    8.86499175730192   14.34939824565058
H         0.81772576910794    8.08945253619508   13.08448071905375
C         2.44047456701600    5.56223448167785   15.95926992098061
H         3.08332928951440    5.96835272782030   15.18438941277288
H         2.37939530252942    4.48364552797002   15.82424247320648
H         2.89180103209472    5.76304060013469   16.93110702916668

