49
CSD_code = MIJPIF | q = 0 | S = 0 | Stoichiometry = C22H24IrNO | MND = 6
Ir        7.05878419672468    1.69195342357371   11.71005530640262
O         5.92979500844601    3.01058457690377   10.63526008210099
N         5.59789940133343    0.22739058967372   11.33548484345589
C         2.88185931837655    3.98793235562549    9.03690598950599
H         2.45146685446182    4.87239756348649    8.58874735435770
C         4.74626780700113    2.89816176352879   10.16456469326100
C         8.25527563087500   -3.29725496006109    8.83298010814035
H         8.86607925556021   -3.84264784860325    8.12906675552064
C         4.47482824924238    0.47574242511342   10.73307262325826
H         3.78497037784314   -0.36518986222173   10.60067917078891
C         8.71309180142287    3.04501482098972   11.52519011292291
H         8.57115589471511    3.59123492907076   10.59663328739325
C         7.90921486173693   -3.87264264925165   10.04464864613173
H         8.24969135049764   -4.86816073451079   10.28863349940833
C         5.80977692819247   -1.17049424847714   11.65580314424532
H         4.84540564250546   -1.70213618343256   11.69644248829539
H         6.26662569664402   -1.25406810097710   12.64507595544752
C         7.92371833704043    3.42545536485215   12.60938725754877
H         7.23927767494417    4.25711645686504   12.46157038395036
C         9.97699707359303    0.86133061649493   11.68432835297276
H        10.12061701568963    0.49162852633599   10.66738432186738
H        10.77499797759860    0.43135228299451   12.29934295832359
C         8.02420712044512    0.76565089113765   13.36839422017297
H         7.37652812322834    0.04837977615945   13.87014804290883
C         7.81454106414650   -2.02122489923101    8.53093560067825
H         8.08137090813021   -1.56512137329530    7.58900036889641
C        10.07271097031348    2.39722732855148   11.68075716102350
H        10.71547947698831    2.71103964379842   10.85688497357209
H        10.53334171533472    2.75307726797482   12.60312088598078
C         8.69273035615208    1.73171878973838   14.33235557831692
H         8.40643326054771    1.47319787242828   15.35328567834344
H         9.77450019084527    1.61249317045101   14.26230363024307
C         3.98319340637969    1.69041689934941   10.19407225971475
C         8.29180921158392    3.19108433619385   14.05569767496406
H         7.42648358386054    3.44596356945376   14.66955014650656
H         9.10296569515394    3.86921894750692   14.34070369639457
C         4.14140448440386    4.03507711120105    9.56253746687220
H         4.72344758109927    4.94464168123720    9.53959152046568
C         7.02868051988083   -1.32168711393258    9.43095860991542
H         6.69561821973694   -0.32373874507680    9.18740379324019
C         6.68239450508409   -1.89012568443541   10.64851457522973
C         2.13881671301299    2.80082717570172    9.07104125313189
H         1.14453485465360    2.77346987488004    8.65187402371426
C         7.12935869874092   -3.17294252656519   10.94623685953097
H         6.86393149743893   -3.62243615294879   11.89299322050175
C         2.68755223018919    1.68362096012662    9.63620207175027
H         2.12325178725703    0.76057250395977    9.66369738755246
C         8.63487526539584    0.35026067671767   12.16877065458303
H         8.45284220554785   -0.66896308904893   11.83611131049701

