73
CSD_code = MIJPEA | q = 1 | S = 0 | Stoichiometry = C30H34CoN2P2S4(1+) | MND = 6
Co       -3.60622909911896    4.45090024540724   17.77549468709406
S        -1.68638787981535    3.45048257829055   18.56006745514485
S        -2.36171782904719    4.07203817804038   15.87164574671641
S        -2.86724857294872    6.59214678711216   18.18704944289678
S        -4.52863985523032    4.97066808347443   19.82415004018817
P        -5.48132143689539    5.27821572200776   16.95595377033434
P        -4.45271867556838    2.45187895859509   17.37428414673628
N        -0.14020570418646    2.72684733192017   16.50916536874186
N        -3.96130909655117    7.51007427303941   20.44115889827939
C        -1.23843282151412    3.33328769043901   16.92486687428401
C         0.78765818693765    2.10399155071293   17.42086695469546
H         1.76279501542106    2.58888364740461   17.34746203416054
H         0.89703852438027    1.04855029286441   17.16554553667160
H         0.42376594492155    2.18957770008064   18.44219590916135
C         0.21192565176424    2.63803086035189   15.11379761498985
H         0.26741100233634    1.58928515395613   14.81605826179190
H         1.18424396540909    3.10478402485777   14.94736520712291
H        -0.53566112746725    3.14428790577194   14.50728734301283
C        -3.80310930470642    6.50093857718352   19.60254308007881
C        -3.34444786785664    8.79550989945519   20.22400982987713
H        -2.80702652003716    8.79802879258924   19.27838457190458
H        -2.64472255260240    9.01433712852541   21.03282678373039
H        -4.11364743316724    9.56940599906636   20.20241908504094
C        -4.75928929816906    7.40223018751946   21.63719338874592
H        -5.17689888366369    6.40115681534076   21.71812460376402
H        -5.57204591283206    8.13001032923321   21.60221236163419
H        -4.14119176003361    7.60435259039993   22.51369335015440
C        -5.61424227223626    5.38799265328737   15.16044063023557
C        -6.73118561568866    4.88048653240447   14.50288197319334
H        -7.51915694048989    4.40208436159823   15.06969378487453
C        -6.82522832229660    4.99797761053033   13.12848665089862
H        -7.68993197030262    4.60628355857838   12.61443517955937
C        -5.81260325691980    5.61722852915134   12.41206917578666
H        -5.89121569753331    5.70509103649419   11.33929194925555
C        -4.69834525581329    6.11890981155840   13.06617685873815
H        -3.90960628711657    6.59614875156381   12.50486137710999
C        -4.59365157976665    6.00265826290921   14.43990669070292
H        -3.71812060197347    6.37400050319500   14.95684979382664
C        -6.13693110811390    6.84789830511835   17.57239900767886
C        -5.67787472380396    8.05774327087785   17.06072638006823
H        -4.96296721500085    8.06290515814544   16.25012561348940
C        -6.14289575462819    9.24629022791195   17.59298064556673
H        -5.79182872366377   10.18591637803617   17.19425427636890
C        -7.05622074995682    9.23097837698995   18.63578601552323
H        -7.41605273904725   10.16090540189515   19.04960786460807
C        -7.51434344158613    8.02551219162809   19.14482196208748
H        -8.23183981789532    8.01482625680745   19.95162878921950
C        -7.05531529925542    6.83215951883213   18.61906231835497
H        -7.39843328719597    5.88627804214634   19.01768979602818
C        -5.58631273267652    1.77614340739542   18.60356230101745
C        -6.81747071651639    1.25469056760675   18.21643061622591
H        -7.10735696235692    1.27466130652178   17.17403513179827
C        -7.65736520375139    0.71003193171339   19.17000605327349
H        -8.61262329876618    0.30333355937901   18.87416421980045
C        -7.27397268367230    0.68479331768029   20.50216632553388
H        -7.93375704520055    0.25791460527306   21.24189357380315
C        -6.05039549714485    1.20880719936390   20.88852295783279
H        -5.75739725953795    1.19225747722323   21.92720296435248
C        -5.20517625283815    1.75881023380219   19.94256163371653
H        -4.25584789031223    2.18720199564328   20.23758967046036
C        -3.36988802450576    1.07113890239982   16.93240521910189
C        -2.74274406155424    0.31690883047505   17.91926512979047
H        -2.94351337929542    0.52025659622657   18.96164898251276
C        -1.86794088417919   -0.69116183235685   17.55747854292139
H        -1.38412877518491   -1.28077267824831   18.32131569325526
C        -1.61237337361176   -0.94286357773027   16.21843731910514
H        -0.92728737028988   -1.72935608278536   15.93986345135075
C        -2.23830332724212   -0.19204825356983   15.23517104551876
H        -2.04480042241350   -0.39427882523665   14.19234112165968
C        -3.11475198925277    0.81741500687337   15.58711203744653
H        -3.59968567553915    1.41617347213354   14.82707412121552
H        -6.58710288802024    4.47109421619631   17.23370037969076
H        -5.27620028549030    2.43437258030938   16.24595242882877

