64
CSD_code = MIJQIG | q = 0 | S = 0 | Stoichiometry = C16H41N4PSiZn | MND = 3
Zn        0.60710002920306    2.49552788298177    2.07109776007061
P        -0.75986334844053    4.31250002673792    3.39164663579836
Si        1.99200535120001    3.72950615605858    4.86219573298952
N        -1.13532786764903    3.44052560159722    2.09124363238496
N         0.71601535697040    3.75005254690980    3.72174375678748
N        -1.90375000892982    4.24257165239923    4.60705921606639
H        -2.20469817393771    5.14933451977269    4.92682167783048
N        -0.89606502476539    5.94043849160401    2.96954914119393
H        -0.71309123396499    5.95609971713311    1.97154416490609
C         1.75954584484810    1.08210479768335    1.22478950202180
H         2.63883173804106    0.87082425881438    1.82224953750961
H         2.10406160261093    1.37495085733989    0.23847183476528
H         1.21635275649737    0.14992458808993    1.10764164658298
C        -2.29612444366169    3.55819128077418    1.22896302446294
C        -3.48118213923865    4.24500385245266    1.90933817701726
H        -3.18585078336261    5.22508882429404    2.27371206288640
H        -3.82298601401495    3.65093807449825    2.75153290751084
H        -4.30189151076909    4.35766909077519    1.20309361162057
C        -1.92082506793394    4.34153799840656   -0.04123436132169
H        -1.76060269094829    5.39316560241272    0.18733459804708
H        -2.71361202333838    4.27021458814902   -0.78290390280929
H        -1.00435401278306    3.93267693635359   -0.46602422376064
C        -2.70631995266673    2.13841811965041    0.81197069656144
H        -2.97494107036962    1.55320068412136    1.68825792630986
H        -1.87238567914855    1.64563665433540    0.31400306336782
H        -3.55767673156572    2.16585588965820    0.13563651698439
C        -2.20502099264393    3.16178835036962    5.52797983718858
C        -3.71404607379806    3.18395817074964    5.80788457543374
H        -4.27491231241123    3.06093251781608    4.88502215118010
H        -4.00443901119209    4.12888739114915    6.26302362763693
H        -3.98277928968532    2.37793561827980    6.48572695020486
C        -1.44801790268283    3.34985811377605    6.84788166849486
H        -1.69571721701685    4.31167856751075    7.29489732630184
H        -0.37871651304101    3.31326189894117    6.66371191387689
H        -1.71024329080222    2.56472133561433    7.55323753144453
C        -1.81296994217888    1.83613030194868    4.88675097706417
H        -2.38444140257863    1.68016642000586    3.97561278792738
H        -2.00409250045718    1.01226944989038    5.57088820928476
H        -0.75540772051576    1.85152562748969    4.62955514305370
C        -0.34458121213999    7.14162502079704    3.58994186801817
C        -1.09691381596633    8.34002635444051    2.99623186272712
H        -0.92234916883992    8.40994605064360    1.92455874321377
H        -0.76043315089574    9.26316943510673    3.46117583775817
H        -2.16647173463464    8.23397227627784    3.16265552816537
C        -0.56284351205874    7.09110978069738    5.09761899562073
H        -0.16934224061043    6.15720142035973    5.48732640398353
H        -1.62265756345574    7.17017108303108    5.33458457919952
H        -0.04703297877845    7.91935372369870    5.57821652685177
C         1.14976067070711    7.26253432148850    3.27660804485589
H         1.66590996127535    6.37314550418977    3.62674044949779
H         1.57696571322928    8.13938578460826    3.75826154679048
H         1.30460726077502    7.34897555484799    2.20216627106040
C         2.04076331400318    4.96441905719627    6.32519318999467
H         2.19272130482199    5.98665408025655    5.99486287068338
H         2.87931379070150    4.70527728778676    6.96475706104635
H         1.14906101223108    4.94287943743433    6.94306086154480
C         3.59790708905035    4.02343567793322    3.86265662216185
H         3.72613756970375    5.06384178762608    3.57907053982409
H         3.59427028776294    3.43462644108481    2.94933629685995
H         4.47014041850309    3.73510884259364    4.43994991059731
C         2.10839908956234    1.96707012777022    5.60842073488262
H         1.99021535965872    1.21663714438309    4.83042082534572
H         1.35333835228319    1.77454631517696    6.36472727656541
H         3.07725345023261    1.81051503402712    6.07175011787003

