67
CSD_code = MIJTUV | q = 0 | S = 0 | Stoichiometry = C28H30NO5PPdS | MND = 4
Pd        5.21631402491788    1.99290322000176    8.14163071427608
P         6.98991360240749    2.41451890342852    9.42319519226034
C         8.43842421118068    3.08802414757522    8.54011522505317
C         8.70728870165732    2.60136592364261    7.27215939868056
S         7.57718808586501    1.37998787924262    6.61365539547620
O         6.39504299605853    2.16875245860721    6.23606415549205
O         7.31118717314631    0.47699660370989    7.74044503407973
O         8.20976701486093    0.74797248512219    5.48528002637657
C         7.53531245799002    1.04886160795198   10.48789202716898
C         6.72491703891696   -0.07419959520095   10.54767298927177
H         5.82192697354770   -0.08002719312816    9.94442299208242
C         7.07910411831531   -1.15701802199285   11.33292185469934
H         6.44756842982762   -2.03122526250768   11.37566366724072
C         8.25794619432695   -1.11582367177216   12.05600726053271
H         8.55074049524072   -1.95799059403484   12.66594523289277
C         9.08100656952892   -0.00210181247364   12.00689341424923
H         9.99654378843609    0.00330646821186   12.57824005456378
C         8.72474939726267    1.08930710542135   11.22384516970553
O         9.43978583367464    2.24096288662753   11.11605768808228
C        10.68905246876232    2.32896420377734   11.75461063840612
H        11.09450477463279    3.30103023364283   11.47772765097494
H        11.37133619113116    1.54451505247474   11.41296480821075
H        10.58861720551547    2.27631677840280   12.84417860635975
C         6.67262048023489    3.77472273319684   10.59340638122835
C         6.73968784656216    3.75350240977075   11.97371320148827
H         7.07390044547303    2.85903238309576   12.47774637266671
C         6.39026151175232    4.88083052892092   12.70302664193371
H         6.45671720284518    4.86910724302852   13.78058121003422
C         5.95589624036641    6.01941468651092   12.05029946472614
H         5.68775589820485    6.89812115813279   12.61812376146525
C         5.84497656858906    6.04860879148158   10.66653361213751
H         5.47946346548337    6.94014880377079   10.18041937658865
C         6.19003875417645    4.92020149015548    9.94109325268649
O         6.10280038769085    4.77793044124007    8.58783326197496
C         5.93740551269286    5.93836373246059    7.80409897039917
H         6.11603513668873    5.63402104541553    6.77346922119103
H         6.66609902223131    6.70677607953362    8.08237034884016
H         4.92423517380498    6.34390959962307    7.89663601071906
C         9.74152748719687    3.09915574241803    6.50691320304440
H         9.90032476629539    2.67469339786604    5.52769142164293
C        10.53601659423977    4.11451171949927    7.01315864662256
H        11.35427521327256    4.50930162612905    6.42895668301500
C        10.26508654315996    4.63146544778778    8.27216932390145
H        10.87305300810759    5.43507576947152    8.66418011621814
C         9.22168797127326    4.13200466445462    9.03117779528190
H         9.01507254405688    4.54426885882045   10.00809971438904
N         3.73015749939057    1.42832067434372    6.84558440755138
C         3.59443660601439    0.12565300342269    6.58890713547047
C         2.88372337967777   -0.31129628143135    5.47666260936477
H         2.78453354097523   -1.36760829012022    5.28164499613578
C         2.31939386994501    0.62204966162573    4.62464574280431
H         1.76315639183304    0.30522835866677    3.75499211556626
C         2.49045664897133    1.96875461180462    4.89809221751711
H         2.07792957585922    2.72262234635693    4.24585743810155
C         3.21899896372119    2.34131927273199    6.01983926637302
C         4.24251671464293   -0.82200115080872    7.54700644352831
H         5.33037462640017   -0.65582747283406    7.53813245812810
H         4.03881342561676   -1.85550070439184    7.27717853655081
H         3.87281731723346   -0.62924621338618    8.56015364441940
C         3.51424335978467    3.76649551054345    6.35838371429787
H         3.25020577409325    3.96153626481567    7.40273663322096
H         2.98473482175914    4.45414673385648    5.70309875760268
H         4.59646175278532    3.90610195212625    6.24666244333616
C         3.93634799927795    2.17966756674740    9.71481313236016
H         2.97810101207535    1.69387305739601    9.50747972777074
H         3.74174380175496    3.24411374330920    9.87904131048081
H         4.32237739673902    1.77862919567465   10.65560008101531

