55
CSD_code = MIJVAF | q = 0 | S = 0 | Stoichiometry = C24H22N4O4Zn | MND = 6
Zn        2.19649419229946    8.61219962485284    1.24243266438459
O         1.17838619935926   10.35232137289503    1.67909445318679
O         0.92272617742842    8.53284937345888    2.85771515171680
O         3.29262885640598    6.86263106565555    1.38303427336975
O         3.85139329437742    8.67913816686857    2.46015901670380
N         0.78454067546646    7.73423424791961   -0.09907237799918
N        -2.75014426620252    6.90778706486724   -0.06848445894615
N         3.37789039680273    9.49274627346766   -0.30575685277364
N         6.53604067949453    8.74941913611110   -1.94238767889878
H         6.71265574333607    7.86584619552615   -1.49323685474526
H         7.35759423376406    9.26610329565295   -2.21025843103927
C         4.00874011369834    7.46178867392931    2.22159144792408
C         5.09899175384437    6.71509861335629    2.91531676234916
C         5.91545182137769    7.36958447349311    3.83084275979670
H         5.73671688944770    8.41606389355553    4.02536052939440
C         6.92608798091109    6.67787770661559    4.47255894616891
H         7.55966625631902    7.18457327643921    5.18635361771719
C         7.12577542543590    5.33289894537623    4.20360087738214
H         7.91515527172067    4.79335282998657    4.70749878760854
C         6.31242382486564    4.67748946502215    3.29270104056134
H         6.46819078294722    3.62775070528933    3.08826783123136
C         5.30023976657185    5.36534168417300    2.64905611915134
H         4.64982722402751    4.87511649932241    1.94029574862232
C         4.45126356443717    8.85515606560718   -0.73999649307957
H         4.52488191802588    7.80636732500308   -0.48841832661537
C         5.47039581691845    9.47407452658892   -1.47091300195294
C         5.31775160904417   10.83322468000638   -1.75781812266950
H         6.08067872450343   11.35588520522781   -2.31732076541397
C         4.18721900422863   11.48611101399674   -1.30790855374132
H         4.04450791271580   12.53598083833128   -1.51054974765679
C         3.23953327779128   10.78362920817919   -0.57942121265316
H         2.35264551457519   11.25393407378625   -0.18838657614319
C         1.19899226229417    7.05479955734960   -1.16170963850644
H         2.24574802131488    7.13681381505475   -1.40355690681908
C         0.34169907350420    6.27155023386618   -1.91751499367055
H         0.71510686408414    5.73050082737951   -2.77300152929084
C        -0.98929976421597    6.18303564329621   -1.55927581419144
H        -1.68073753061876    5.57285787954846   -2.12280724292573
C        -1.43377781858976    6.89715268512446   -0.44379063915191
C        -0.48703163805258    7.66400211407518    0.24724568750083
H        -0.78378602541844    8.22771464198049    1.11879643739225
C         0.72085442612363    9.75613611397087    2.68234390898758
C        -0.11599542001593   10.50658358785953    3.66327879101347
C        -0.60267473060267    9.86362428470348    4.79609718752737
H        -0.35579902498654    8.82343996312691    4.94581402020006
C        -1.37931864414459   10.55865986395137    5.70451925900461
H        -1.75622089229042   10.06074954461231    6.58645608267099
C        -1.67340645785206   11.89533380759930    5.48596539538173
H        -2.28019620032227   12.43735570842965    6.19737454732206
C        -1.18836309432070   12.53910317916160    4.35854335879039
H        -1.41720519308765   13.58216190036512    4.19303315997005
C        -0.41045261615413   11.84820100752597    3.44804998654731
H        -0.01853488550353   12.32895520570637    2.56471249547618
H        -3.33651294717002    6.16210455437682   -0.40432570221525
H        -2.95703839991455    7.24498836037503    0.85680157605639

