45
CSD_code = MIJVEG | q = 0 | S = 0 | Stoichiometry = C21H16MnNO6 | MND = 6
Mn        5.92986182203721    2.38325213224800    2.11696592972962
O         4.62958730847113    2.77386956069046   -0.48084699991996
O         3.52993623421485    3.16666769421334    3.61975417844766
O         5.57860835105822   -0.49252286464084    2.68529624624588
O         7.49709997156491    3.22505775391956    4.45257923721459
O         5.69024041094099    5.22995406777807    1.85952306475943
O         7.62403868789685    1.80181806025852    0.98628549260621
N         8.14591332673063    3.66606053531469   -0.20528840711026
C         5.08359134813228    2.54916097167907    0.54804703317220
C         4.46115163205618    2.86062685019939    3.02635739131217
C         5.71371452967410    0.62113683645002    2.47172287025319
C         6.92273038225620    2.83808823800598    3.54236622996957
C         8.62124395128527    4.28019920965434   -1.42412488002210
C         7.69210244805614    4.59786457066957    0.81283852402114
C         8.17460144644627    2.34727430178604    0.01719355999728
C         6.35437529462592    4.26341862542031    1.57936491249600
C         8.71418153968618    4.83952787406217    1.90480106918635
C         8.59611890848204    5.99721964819052    2.66894385255407
C         9.47007463113228    6.24377023389996    3.70718962653809
C        10.48952607395492    5.34757735306262    4.01183602180138
C        10.60546952757844    4.19861772385974    3.24385535263279
C         9.72702186335501    3.94017584763458    2.20565571275150
C        11.41767476900604    5.61416272372740    5.15580436197726
C         8.91214812084349    1.45853848743293   -0.92648424179190
C         8.24771274519355    0.35216827539850   -1.44643497586968
C         8.91682800378426   -0.53093356423417   -2.27407666292998
C        10.25581860539987   -0.32962679661596   -2.56590238862244
C        10.92798900513496    0.75522525634159   -2.02665093002503
C        10.26152150098914    1.65063375298357   -1.20995068487036
H         7.85329497109971    4.95433426934722   -1.80936106698135
H         8.82590266010292    3.52211620807387   -2.17594097664217
H         9.52897974143387    4.85889593483288   -1.23595971968667
H         7.48832128313838    5.54935330709949    0.30691173114389
H         7.79924037279698    6.69415451687455    2.45456523849061
H         9.35882271572789    7.14336486783780    4.29475256455851
H        11.38723537177215    3.48497747023518    3.46195497001376
H         9.84724745110973    3.02708441853326    1.63954291038004
H        11.74154396930512    6.65320896799908    5.15510417452746
H        12.29258419666188    4.97060702768889    5.10800507140499
H        10.90515391938820    5.42553316573737    6.09918469419743
H         7.20711145461829    0.19767624500466   -1.20197129075788
H         8.39439133420203   -1.38140419635671   -2.68475555375140
H        10.77922471611440   -1.02311060446890   -3.20660865114710
H        11.97582717369371    0.90386832806394   -2.24005895341189
H        10.79233622884736    2.48735671410739   -0.77908563884384

