34
CSD_code = MIJWIN | q = 1 | S = 0 | Stoichiometry = C12H16CuN2OS2(1+) | MND = 4
Cu        2.41148358009355    6.43223933215220   17.33449143580575
N         2.48336373393980    5.22866533888255   15.69780584895951
N         2.20765679282044    6.12033955848875   19.17551621050896
S         4.36493589560556    7.68733252868651   16.50458939378716
S         1.13710584201999    8.21311087918864   16.34404973511119
O         2.82639618584895    7.24967015479039   12.75194567504466
C         2.76607670545865    7.13632443244277   14.15781602435067
C         4.04637170080195    7.80381654491740   14.71407617961219
H         4.07054127639412    8.86045741088317   14.44547274529087
H         4.89745042861197    7.31083655323319   14.24077490210274
C         3.65800787817367    9.26160527171839   17.11456882898283
H         3.62575701971813    9.12310655272646   18.19521072604670
H         4.36768538742855   10.05746359096209   16.88304327807062
C         2.28610205320436    9.61931605669280   16.56631036331257
H         2.35674696426940   10.11657304372401   15.59998154858772
H         1.78582135774888   10.29546256448885   17.26017521930429
C         1.44575830193400    7.81218506527122   14.59429836384358
H         0.61786210249994    7.16014622085121   14.31202050640206
H         1.33411655936311    8.75056560424186   14.04558165727502
C         2.76341506518258    5.64114780333136   14.45739198850557
C         3.04636490627367    4.73886490941646   13.43962412475855
H         3.26647849426439    5.10900409111300   12.45298271864314
C         3.02669762717797    3.38142725095100   13.70879373155284
H         3.24277403368890    2.66893985797877   12.92815221395954
C         2.72118930676589    2.96061018753581   14.99363683379617
H         2.68737208720266    1.91435563431202   15.24910225236413
C         2.46026206265761    3.92057010424047   15.95180428793025
H         2.21906728054557    3.64407760274630   16.96790442306122
C         1.98878106190012    5.99902380669238   20.29715317547412
C         1.72806596506356    5.84276268528677   21.68243813415966
H         0.81233231464465    6.37284744900626   21.94615931128299
H         2.55822415093462    6.24826894995565   22.26152168224948
H         1.61036568053396    4.78453394919685   21.91793126171218
H         2.87247019721792    8.17594901388573   12.48637521815793

