125
CSD_code = MIKCEQ | q = 0 | S = 0 | Stoichiometry = C50H54CdN6O10S4 | MND = 6
Cd        6.24069388883817    1.25214908282668   10.21154454246293
S         3.49038496356186    0.34398160131835   10.56203465710337
S         9.71488530215469    0.43302276405406   13.62300845896974
S         8.97952048059711    1.18794155553350   10.25007843416247
S         4.37492198494110    3.09146674410919    5.06067327892725
O         7.66868857104557    3.88840664418121   14.79045774388340
O         2.15614585983013    2.07530046828600   13.80408280802285
O         5.39085856274618   -0.59472648423645    5.15454336224564
O        10.72011323454204   -0.09227516288781    7.13890666227843
N         4.27141760615094    3.30010596653790   15.04341884144614
N         6.00236414461572    0.94536800391031   12.34857010079552
N         8.77888918025901   -0.74158433695164    5.59499244028788
N         6.77296080365088    2.07314378796993    8.18749084529423
C         4.98693631487847    2.48236478751235   17.58803850917570
H         5.26631952494185    2.15718239994172   18.57959166613229
C         3.75328397008213    2.14243860913228   17.05871125919109
H         3.05151039824064    1.55021175508712   17.62582311694507
C         3.43603247688627    2.57944259089035   15.77565471536828
C         2.08071291798231    2.24330184289225   15.19835122595634
H         1.71757926402587    1.32400033755296   15.67910033020281
H         1.38496311399999    3.06192768512531   15.44297850662151
C         1.07262969017814    1.56592162088510   13.14555490621842
C        -0.12858305252009    1.22825188674412   13.76013955899318
H        -0.27569891052515    1.39453159842167   14.81552665078149
C        -1.16466033421293    0.67845851766823   13.02395520428056
H        -2.08725195184118    0.42229191141875   13.52280741748767
C        -1.02090915112782    0.46032300100826   11.66711605188178
H        -1.82614264408887    0.02576669562748   11.09559033683387
C         0.16227756234794    0.81897287954538   11.04745997226738
H         0.29100069273897    0.66705453373795    9.98688306550948
C         1.21133099044304    1.37872481803029   11.75975630405213
C         2.46003974729067    1.78296998988407   11.05156589519986
H         3.07016892086384    2.45000372150707   11.65488673938422
H         2.23490305606208    2.26555471400673   10.10146761983122
C         3.92756937065809   -0.33215923054324   12.18813208869639
H         3.00149441990091   -0.55819250399704   12.71745182107640
H         4.46930994203209   -1.25374072058554   11.97395937786117
C         4.80601462062099    0.60253166756732   13.01814906469927
H         4.23012421165495    1.51886326222581   13.24403437035815
H         5.01530784498653    0.12170936874476   13.98977362532136
C         7.08646826340896    1.30281951458977   13.17851032960768
H         6.74505310155425    1.75051174768630   14.12124634726249
H         7.71114022227357    2.01211359828280   12.62944405465333
C         7.95503023615416    0.06179831899848   13.50826467942102
H         7.85855638413758   -0.67061501306189   12.70539694157168
H         7.63075278454352   -0.38592731941787   14.44828267567494
C         9.73920484613533    2.01797071254216   14.55670909635558
H         8.94497939734692    1.99023056409729   15.29779467150243
H        10.70740939364710    2.01631443737507   15.05815006819487
C         9.61612329809758    3.20146283514869   13.64533679726471
C        10.54198552120601    3.38167033039752   12.62859419410876
H        11.32894586355695    2.65102943596123   12.51089540618159
C        10.44741892687963    4.45196490509779   11.75958761795860
H        11.17119904056494    4.56836435788354   10.96719140261017
C         9.41915937001142    5.36389318077109   11.91168399639732
H         9.33046906572618    6.20375779648443   11.23932761518985
C         8.48373212822704    5.20545147317680   12.91784605001214
H         7.67500550401209    5.91226442658420   13.00608391983617
C         8.56491578369539    4.12129761007824   13.78185664109395
C         6.37091444775884    4.45869046163774   14.69071611913207
H         6.00634977637890    4.47110589652548   13.65923927614458
H         6.38322590809881    5.49237752115204   15.06732952063550
C         5.44959685809816    3.63372529834033   15.55043169222458
C         5.85277323264311    3.24483422826884   16.82499662661572
H         6.82494309918083    3.53401468639352   17.19026825248362
C         8.84154997585971   -0.70015131107827    2.83351291408629
H         8.86471773207886   -0.67554166001147    1.75386899648875
C         9.98292765881747   -0.42178696685717    3.56620714204951
H        10.91499883056152   -0.17983077686746    3.07907733234429
C         9.90184313011966   -0.45928915807629    4.95449410000318
C        11.12261424966341   -0.19091549607644    5.80094570878306
H        11.83398173163353   -1.02001188774116    5.66451046139936
H        11.61054259139913    0.73715797336119    5.46281934904742
C        11.65436283647005   -0.12625420943429    8.13319092724607
C        13.02386431733055   -0.00631956375232    7.93488203309698
H        13.42889000623234    0.10868234504497    6.94106322595572
C        13.88438516539156   -0.02079868145050    9.02052475673544
H        14.94661587944236    0.07542650585753    8.85222207867921
C        13.39082484593129   -0.15052523035030   10.30547301567629
H        14.06447995285254   -0.15564815637749   11.14813032637394
C        12.02702057565317   -0.27695434437360   10.50576532807697
H        11.62503066869963   -0.37486748082797   11.50303913927119
C        11.14924171931659   -0.27801194925295    9.43383523718652
C         9.67845317203153   -0.40321036455891    9.65082050188002
H         9.45531675437161   -1.11150489543328   10.44718462292918
H         9.16426602549618   -0.68664340204528    8.73399449327904
C         9.11061683515873    2.20966948606347    8.76388037839711
H         8.94831633970499    3.22322086984237    9.13185311057454
H        10.12246753743009    2.10729269465669    8.37532957395849
C         8.07492361378205    1.86942705766708    7.68758279308868
H         8.27919734810990    2.48708584118341    6.79686851576593
H         8.22459224688060    0.81994354043040    7.36417329952190
C         5.67277143853432    2.16505095839602    7.31510841039762
H         4.94324280439225    2.84634939212574    7.77972648277032
H         5.17010123219321    1.17986499646510    7.29721970096233
C         5.92491902315155    2.59629447166542    5.86729658255683
H         6.38843969574494    1.81313058999652    5.26812472440346
H         6.54319586103492    3.49566117513291    5.84245017629986
C         3.74929556489083    1.48726114786600    4.41967658079251
H         2.88311634802774    1.76715245317903    3.82146668183505
H         4.52449722112589    1.06941752631891    3.78048739230843
C         3.37356284841243    0.55037512456119    5.51885508700806
C         2.18562085470136    0.71653394479410    6.21409377350143
H         1.53046867372928    1.52891859323487    5.93466440893356
C         1.84643186040605   -0.13317559200814    7.25038040499465
H         0.91505370855564    0.00380458458898    7.77719377743009
C         2.70114585105426   -1.16403821713402    7.59970563634989
H         2.44585632007029   -1.82961715812881    8.40897962996518
C         3.89101328850558   -1.35257227357198    6.92023911689112
H         4.54397065206259   -2.15890183352972    7.21121888808001
C         4.24185389248547   -0.49285655719470    5.88438024301575
C         6.45529087258333   -1.36886910794952    5.68237319148745
H         6.23964131338496   -2.44212858706985    5.58150598694594
H         6.61349462223871   -1.13761575310100    6.74042652022719
C         7.69101885835304   -1.03050662184581    4.89606964503667
C         7.67356768564637   -1.01897969678563    3.50559243781042
H         6.76307075058909   -1.25003394343044    2.97654611799658
N         6.34498646586866   -1.56397430654122    9.53171218668661
O         6.13110034660522   -0.57494225126227    8.79229577785987
O         6.67966719040143   -1.35850831470868   10.69656316446624
O         6.23014706205698   -2.68113314885644    9.07989028893973
N         5.88361406030253    3.80844767216783   10.91603298947373
O         4.99231531176236    3.15139641585905   10.35739713306973
O         5.61918979750992    4.84638265983284   11.48114775677204
O         7.04283674029453    3.37894149698543   10.89778417391216

