65
CSD_code = MIKCOB | q = 0 | S = 0 | Stoichiometry = C28H32ClN2NiP | MND = 4
Ni       12.25672351640595    1.24782773891088    6.49621858289536
Cl       11.95624856840797    2.18283213556230    4.61606069867801
P        10.32497521287982    2.02041253745895    6.75835055169132
N        12.24546024789649    0.77757975270069    8.36669740385771
N        14.01025242439561    0.58092745144535    6.14642372045742
C        13.31246960073038    0.27985584820280   10.52701778668478
H        14.31217686142182    0.07526592972184   10.89850512098870
H        12.65658394107319   -0.52446708274173   10.86172672051577
H        12.96345190659520    1.21164260867715   10.96979158563564
C        13.32486092697865    0.37153247583279    9.01935289720844
C        14.50458031726296   -0.02876733211311    8.40073863555333
H        15.27625011542761   -0.42546457812368    9.04184536045022
C        14.78701140764637    0.00155001793768    7.03432511247795
C        16.06024358412613   -0.66413382647804    6.57427771431851
H        16.57955347730431   -1.12687270798605    7.40879263699079
H        16.72455817427105    0.05706460337193    6.10181436928880
H        15.83275135524664   -1.42809026788622    5.83209736401755
C        11.06219811857699    1.09673324382951    9.16162490099589
H        11.19677874836801    2.07531966790008    9.64925455641723
H        10.91753217466169    0.34574785701869    9.94763930314942
C         9.80148522679360    1.14518406717090    8.30187996737691
H         8.97264333244461    1.62978285189748    8.82251094370247
H         9.51410513617710    0.12670389292915    8.02686648686346
C         8.87027200817327    2.04401487852881    5.68225821986861
C         7.87848989301688    1.07228180177939    5.75223314254977
H         7.95026740786743    0.26835391074764    6.47029643484700
C         6.79285166669659    1.12799835311769    4.89588723116610
H         6.02253878766974    0.37273780707089    4.95760697312751
C         6.69494397920734    2.14409711707320    3.96038072633431
H         5.84629404146355    2.18326262010544    3.29344168660425
C         7.69003210466639    3.10541367223527    3.87637488496834
H         7.62048992184847    3.89273008649577    3.14051683407633
C         8.77516443434472    3.05637820434893    4.72974456151558
H         9.56482560722457    3.79051359176207    4.65930898216542
C        10.44438630832032    3.73865106891634    7.33525479254792
C         9.32003593448947    4.50181895596018    7.62887023121504
H         8.33260712578663    4.09181347165030    7.46444508106556
C         9.47383557294547    5.78498231071764    8.12081103395768
H         8.60241094626201    6.38222684296979    8.34698931986289
C        10.74225742801741    6.30716503184307    8.32350242599699
H        10.85463747669786    7.31104900771590    8.70598318517918
C        11.86419226250097    5.54717002743716    8.03501551322690
H        12.85135587476343    5.95611172612003    8.19282174174786
C        11.71430944965739    4.26410399720120    7.54165091816601
H        12.58167064011156    3.64913998244332    7.30121586562851
C        14.39433346000046    0.51662482709057    4.78485172143968
C        13.88968632934592   -0.51132919279486    3.98138230440936
C        14.29093197705594   -0.58985510433480    2.65869814589462
H        13.90267164876270   -1.38473951326594    2.03665059596375
C        15.16904980905913    0.33681924626821    2.11535861698657
C        15.61435050724542    1.38114295266726    2.91397758809504
H        16.26516994493041    2.13259770819762    2.48837086494826
C        15.23387874294042    1.49300398832296    4.24063285261200
C        12.88598579880551   -1.46228684442098    4.56154387291629
H        12.14948040274009   -0.89327539499207    5.15332248005277
H        13.35959376328394   -2.18097115353768    5.23189843964126
H        12.36366681504362   -2.00428661106262    3.77728514077653
C        15.58753922806310    0.24771700827322    0.67789399598441
H        14.95873991250480    0.89578811954573    0.06629280164514
H        15.48774239465494   -0.76950267772674    0.30592964742338
H        16.61986537797664    0.56917962197634    0.55444611264012
C        15.65313240124135    2.66092323160545    5.08078401136185
H        14.76674073614294    3.10635891327111    5.53568785756395
H        16.15603180670255    3.41133147227664    4.47610783628927
H        16.31964569669648    2.35777805114164    5.88856290728937

