47
CSD_code = MIKDEQ | q = 1 | S = 0 | Stoichiometry = C20H20ClN4ORu(1+) | MND = 9
Ru       -2.52683814860482    2.99855101318565   11.13113860477272
Cl       -1.96944360708662    0.85902009701806   10.35663188318107
N        -3.98369409018322    2.81374232557455    9.72354934486475
N        -1.33369269833886    3.56690421111159    9.58659532280951
N        -4.02159330725737    3.41125040612953    8.52468207638703
N        -1.75209424298403    3.96776094509531    8.38112360636510
C        -3.09727936555855    4.47224533222018    8.20626666840759
H        -3.21511784809835    4.73272543424950    7.14650618249365
C        -4.45395183859794    5.83565359457894    9.87732665459862
H        -5.19593284463491    5.05183446818773    9.90532350825674
C        -2.62372824597656    7.91151912445499    9.74947362074933
H        -1.92944657245353    8.73388653429748    9.70064571898775
C        -3.33265675286676    5.70660075618414    9.07133650134933
C        -2.41666548225804    6.77075573963831    8.98026787605526
C        -4.65801912359518    6.98351766203741   10.62541424487833
H        -5.54022798573422    7.07793698782619   11.23804238888389
C        -5.65071674154528    1.94362067727186    8.52665487289603
H        -6.48425252376601    1.33631399316925    8.24326844847458
C        -3.73491856919643    8.01143096322289   10.56767366222502
H        -3.88445690459861    8.90787139273425   11.14882455722933
C        -0.05557553490253    3.23960709175078    9.46370326705573
H         0.50242323358491    2.84814903776399   10.29438934391848
C        -5.02561325549095    2.91085028121489    7.77654154268016
H        -5.22756333474949    3.26750815933638    6.78714503257358
C        -4.95469906904580    1.91305263066792    9.73776259251966
H        -5.10600852473129    1.27094316260103   10.58605088874631
C         0.36554165064565    3.45545727060789    8.15008145793874
H         1.34138675786788    3.28410884745168    7.74699829083375
C        -0.74617953524675    3.91769154703597    7.48725278584634
H        -0.87885233539856    4.21754067426137    6.46818351895879
C        -3.75911828633647    4.19973565142895   12.71520024011595
H        -4.68544530615661    4.75900407937530   12.66106186945819
C        -3.79192631726827    2.82101004936261   13.05632255501266
H        -4.74204663746610    2.34180216425501   13.26436786067159
C        -2.53614612143866    4.86204615912194   12.56243119258477
H        -2.51149192047053    5.92980374336711   12.38416293295845
C        -1.32699586763044    4.13444652485225   12.71157934934566
H        -0.37949869770022    4.66046169816997   12.64964753782675
C        -1.35054009414238    2.77765404803176   13.06910023014524
H        -0.42867946333074    2.24764127660654   13.27827211064336
C        -2.59439062437796    2.11984075376910   13.24014620033348
H        -2.61252603126803    1.08463978537745   13.56183612221334
O        -1.38593589113453    6.60155107932064    8.11560737295174
C        -0.46341309246333    7.65843682935411    7.92978396640644
H        -0.95980228317562    8.56054630732407    7.56448918183493
H         0.23650669365530    7.30057902126001    7.17737760247792
H         0.08011678150599    7.88105046814470    8.85125921008308

