56
CSD_code = MIKDUI | q = 0 | S = 0 | Stoichiometry = C26H25NO3Pt | MND = 4
Pt        3.41177833317325    6.69398776133513    6.20773615066819
O         3.99170045683770    7.47439075594859    8.10124863088834
O         5.24339820762220    7.21237137408048    5.58688643450652
O         0.91530492479605    4.27166224305094    1.12785052516962
N         1.61989701652631    6.14985406188571    6.74546112891837
C         1.15137305663099    6.32065127548882    7.98119060527438
H         1.82664909575981    6.78843724456206    8.68551098634882
C        -0.11887497972036    5.92984418960904    8.35819502740861
H        -0.45554175574351    6.08752628205923    9.37018564498677
C        -0.94348668727558    5.33484288167450    7.41140222031786
H        -1.94164822327969    5.01821655084671    7.67306487584304
C        -0.46202586307973    5.15569076919749    6.12874538943212
H        -1.07725830103815    4.69721808881922    5.37206344289792
C         0.82862668061240    5.56900262029260    5.80639340205088
C         1.46907971341224    5.44555425344826    4.50691838348279
C         0.87595270095943    4.89430157213857    3.37762714842261
H        -0.13105422806669    4.50803159120905    3.38883007806115
C         1.58481062389967    4.82948020819843    2.18308783365596
C         2.88692478552543    5.31875385916330    2.13308127529401
H         3.45596949000716    5.27808117004969    1.21684890178709
C         3.47083051803230    5.86721431624470    3.26617294174138
H         4.48250986480433    6.24097316373245    3.20210874448876
C         2.79016470585522    5.94725833144326    4.47184355040895
C         5.20112411884601    8.45515261735081    9.85555921179915
H         5.22036366746329    9.54155797969138    9.92497060815930
H         6.10938281700479    8.06191533139955   10.30569279752548
H         4.33688625374894    8.08793411153205   10.40447652511127
C         5.08292374474542    8.02027259545679    8.40854322054584
C         6.17410030550977    8.24270207659035    7.54384043051179
C         6.18311437224385    7.79154777295713    6.21574104783983
C         7.43700376108989    7.97193798063778    5.37902730708766
H         7.29828549027059    7.43922179033357    4.44123974033710
H         8.31177776802228    7.57752738900109    5.89003606178053
H         7.60057887341322    9.02483899957259    5.15615273106162
C         7.39252208639645    8.93808305879705    8.10669654343530
H         7.98480191758864    9.36839107229846    7.29734373643891
H         7.08305753856173    9.77749685890798    8.73393506673399
C         8.29160246073039    8.03630903013595    8.91698143375094
C         8.27889633204330    6.65543710467892    8.76662565241048
H         7.59342197918479    6.19904201052683    8.06719937012134
C         9.12473636041128    5.85732492213555    9.51137086773934
H         9.09434449068029    4.78460086255485    9.37923140531729
C        10.01616350445790    6.40665837405836   10.43370824412008
C        10.02795397738537    7.79503343957774   10.57734629961160
H        10.70465278133229    8.25919572590268   11.27814234828621
C         9.18126757137750    8.58956759881139    9.83302813710899
H         9.20661846466068    9.66312355467840    9.96292156206464
C        10.88164104501092    5.51706638722464   11.19691790972693
H        10.77349901410507    4.46776113597415   10.94839990744085
C        11.75313634876103    5.86532560105994   12.13608752668899
H        11.91073493480191    6.88690197200091   12.43693002002159
H        12.34943319986445    5.12919002826548   12.64754056798215
C         1.57321367338519    4.18654093508804   -0.11124221411111
H         0.86009818394639    3.72457853138561   -0.79259178323649
H         2.47008020930565    3.56113429563975   -0.05019697472789
H         1.84600261737258    5.17648429129720   -0.49190863072998

