57
CSD_code = MIKDOA | q = 1 | S = 0 | Stoichiometry = C23H25ClN5O2Ru(1+) | MND = 9
Ru        4.72400919582721    3.40990567205999   16.96211921931996
Cl        4.42927853592707    5.67739059946466   16.42520701059822
O         5.77327819884851    2.27361651810674   20.52835180979236
O         7.87983922469596    2.40355102867989   20.98379404162959
N         5.74861691570097    4.20787592989310   18.56101486853244
N         7.09625754221434    4.17220464309872   18.69784488869579
N         6.47803583619160    3.70227569148295   15.88530368160469
N         7.69920526839416    3.80963257807169   16.45754506545577
N         6.94254078926919    2.05692143749822   20.30678553490217
C         5.28403592315086    5.02690661247818   19.49856573598210
C         6.36137995718402    5.53534695019558   20.24118610418217
H         6.29801854924783    6.21649053715567   21.06347686233234
C         7.50392418766866    4.99329206765426   19.70691695918496
C         3.84909443027273    5.32182438539115   19.71566458687240
H         3.33549047546195    5.43595039365557   18.76323528392084
H         3.75231805423099    6.24256726984488   20.28318617160500
H         3.38589797841029    4.51805338531773   20.28563578286973
C         8.91642441843320    5.15228342588183   20.11757035394202
H         8.97687439037272    5.92842758254229   20.87424938328011
H         9.55251136973837    5.43537005398444   19.28026648061699
H         9.28992525292256    4.22505572622643   20.55498816268269
C         6.60661609183234    4.10052615600842   14.62243536179263
C         7.94509041011296    4.44605601428472   14.38208684993693
H         8.35190891296263    4.80276632021580   13.45906837837632
C         8.61968180914878    4.25571102041677   15.56524985535048
C         5.49501841646486    4.14837761029154   13.64254212416366
H         4.56161062149783    4.40690185593858   14.13872982577167
H         5.38861420679776    3.18716893063048   13.14042433081451
H         5.71144468252890    4.90062062500118   12.88917258036726
C        10.04904471565261    4.46394438459519   15.89637381470510
H        10.51301684189562    3.54968289918110   16.26561193143062
H        10.16406890928991    5.24292510160979   16.64949108004057
H        10.57832824456490    4.77969540017777   15.00241501966975
C         7.90537445131170    3.37291005421560   17.81606220992218
H         8.95503154335157    3.56315491527575   18.07675178036984
C         7.64595533214317    1.87127803606142   17.93118404638435
C         7.24188577009752    1.27117066842772   19.12008514497933
C         7.09526609327217   -0.10499910326440   19.22638914141432
H         6.78222078156407   -0.53530161040458   20.16564982790559
C         7.36492366056716   -0.90944566400843   18.13354771499549
H         7.26233736311507   -1.97952600430745   18.21573445163154
C         7.77190095727533   -0.33040962473995   16.94293753224713
H         7.99107210255501   -0.95041967499700   16.08797953204249
C         7.91504549187694    1.04265740813849   16.84428213447259
H         8.25029304631600    1.47293811924236   15.91310205310338
C         4.18349452602794    1.25290407532272   17.71094886541592
H         4.68483239573343    0.53603154603644   18.34680945800089
C         4.34919503153847    1.20635484163047   16.32128935744698
H         4.99379421154621    0.45522546646703   15.87797421700235
C         3.56248650817950    2.03929433119511   15.48189748502472
H         3.60555487899863    1.90987963945199   14.40740707059512
C         2.65210806347844    2.93674969729573   16.04677704764997
H         2.00785999200185    3.53227896125476   15.40987830941317
C         2.51648175764403    3.02331196363684   17.45451479658228
H         1.75708958295845    3.66701621790422   17.88145181930104
C         3.28570250061238    2.18848924861970   18.27803762357659
H         3.13709360092234    2.18693768450838   19.35179924010092

