87
CSD_code = MIKFUJ | q = 0 | S = 0 | Stoichiometry = C35H47N3OZn | MND = 4
Zn        0.20391366511857    8.22229471837346    5.44462418583880
N         0.14626638217553    7.65567864932806    3.58444297043434
N         0.56045148221735    6.48152241917838    6.19191963131631
N         1.47996947024673    8.81737720690535    7.05102601064949
O        -1.06272519788361    9.46467783179642    5.82146634538715
C         0.75968742423900    4.04209013716448    6.20615160163462
H         1.79377778996053    3.96692600984444    6.54409435141172
H         0.55811923511852    3.20966529797550    5.53909539638904
H         0.11389530650158    3.95731817368451    7.07895542437502
C         0.53217514456632    5.35813320510785    5.50587099515534
C         0.31922298567218    5.32600391856872    4.13106122157847
H         0.30011281250199    4.34461102482877    3.67985482127233
C         0.16084038642256    6.38736626632272    3.23671729966768
C         0.02948302243242    5.99728408142338    1.78405486136170
H         0.06976782676836    6.86835669814688    1.13549286410795
H        -0.91882755673704    5.48597022792700    1.62641514909472
H         0.82899797226416    5.31182478965976    1.50998193589795
C        -0.04984704133636    8.68100134385926    2.62763964534219
C         1.06541860213974    9.37451800210554    2.13845481613465
C         0.86431395146902   10.47461469782118    1.31823526860695
H         1.71274513396871   11.03299961543802    0.95239343601324
C        -0.41147111021182   10.86543428404995    0.95898724784281
H        -0.55458284350501   11.72655366294641    0.32206154777198
C        -1.50195191524748   10.14441106097480    1.40529592141810
H        -2.49378006602836   10.44762496019755    1.10587340015461
C        -1.34498407532209    9.04413975193250    2.23606824263678
C         2.46402455158954    8.93269922154377    2.50868365468046
H         2.40466918982514    7.92200949184330    2.92544309032789
C         3.39228764033081    8.88273950179008    1.29385353475716
H         2.93968528074860    8.30467918873719    0.49105416656158
H         4.33522112146125    8.41357799558570    1.56750699402021
H         3.60990920329275    9.87984192664893    0.91987054269428
C         3.03234999600762    9.85370174565872    3.58972518506787
H         3.06685659872497   10.88234174690090    3.23759335707255
H         4.03868576509682    9.54397783801058    3.86511161808574
H         2.40038193776187    9.80869456033550    4.47647567832828
C        -2.55675104511680    8.26992333975340    2.69924884780031
H        -2.22009445025825    7.41447788193156    3.29228336928954
C        -3.35787281301232    7.74217613373385    1.50570025636025
H        -4.15934786718782    7.09322354875824    1.85297275273806
H        -2.72020965410323    7.17393818554354    0.83158673582674
H        -3.80355706721025    8.55945095155550    0.94394241586531
C        -3.43433267004921    9.13654497904105    3.60285892609325
H        -2.85209004577768    9.45851589327491    4.46253130597451
H        -4.29164947080993    8.56465484139528    3.95318785331374
H        -3.79814768427271   10.01335452947288    3.07163145944364
C         0.95738451238922    6.50306574166690    7.57069865503237
H         1.84583933848490    5.87519925406961    7.74156762097655
H         0.16082601263105    6.12578503305791    8.23021346355436
C         1.30962225135404    7.90312438536579    8.00093287945265
C         1.47890966733288    8.20588775487851    9.34724985444339
H         1.35738121165177    7.43167146942057   10.09007915877229
C         1.79029347583473    9.50366099023890    9.71338081796662
H         1.90545313522826    9.76700276211926   10.75411450067422
C         1.95085701270055   10.45444377566706    8.71920183890847
H         2.18620439921984   11.47886907219760    8.95453879404876
C         1.79383152554629   10.06105770264822    7.40243000933710
H         1.94496026276635   10.75804337369897    6.59339999521204
C        -1.02723373044569   10.41958001265328    6.73786301790062
C        -1.50602778068747   10.17315577391239    8.04485276599242
C        -1.44590279964444   11.17736501408061    8.99271837421347
H        -1.80971262708886   10.99623171798103    9.99328885927681
C        -0.93223208847593   12.42431402765626    8.68059580063485
H        -0.89183050347569   13.19764327359538    9.43455747726615
C        -0.49998602443122   12.68447074349466    7.39350524800980
H        -0.13220836606530   13.67073826695168    7.15093380990057
C        -0.53521566988537   11.70506563088868    6.41610314727021
C        -2.11898938425605    8.82227118898140    8.32938497784655
H        -1.57912727683475    8.08622189472301    7.71709301523185
C        -3.57769122797027    8.82627332523494    7.86089199842965
H        -4.14493966171900    9.57834170300224    8.40642795397139
H        -4.03643639400222    7.85277227105695    8.02623969030678
H        -3.62278631828468    9.05846782955008    6.80073587860358
C        -2.03762309120067    8.39526436588612    9.79268265828951
H        -1.02611558170614    8.51169442761094   10.17648906008815
H        -2.32936386005601    7.35049285632280    9.89047227291745
H        -2.71271716480613    8.98677151906131   10.40691234013608
C        -0.13144911022293   11.98163951293070    4.98676288923317
H         0.16220411610086   11.02427923005921    4.53535945824871
C         1.02693890759238   12.96657124494164    4.83884736861023
H         0.71978552789194   13.97415574239422    5.10981147689354
H         1.35539229331455   12.98570869033879    3.80130010592709
H         1.87465793222422   12.68813671877258    5.46267650295877
C        -1.34960833664304   12.49699261729605    4.21505212411494
H        -1.69287214986931   13.43937668158748    4.63892453291928
H        -2.15792931009278   11.77459697958983    4.27464838817380
H        -1.09755042876858   12.64957388725661    3.16766488242268

