75
CSD_code = MIKFOD | q = 0 | S = 0 | Stoichiometry = C31H39N3OZn | MND = 4
Zn        6.81347138618358    3.94482962501799    2.71853070888916
N         6.98200054826870    2.64278890284400    1.03452634154270
N         6.09525306423056    5.12301611919842    1.39111703464655
N         5.63918229122646    4.48530464346342    4.16688666942533
O         8.58073224371329    3.85922411172807    3.09419925354620
C         7.53473459901004    1.43297462198710    1.01126747550329
H         7.29653376454668    0.78438326096119    1.84094593379195
C         8.34333169197695    0.99301442763167   -0.02136376374653
H         8.77827310156212    0.00819812561836    0.01248420472473
C         8.58964603543783    1.85528843399390   -1.07653031476022
H         9.22531027462990    1.55751973852206   -1.89655109717861
C         8.00389641211332    3.10880019376040   -1.06028320142898
H         8.16560360550203    3.80778723049240   -1.86698883721078
C         7.21093843044358    3.47429800525533    0.02073198989743
C         6.54995242435570    4.82857402413669    0.06284957127365
H         7.26713108411588    5.58155745546948   -0.29736316718657
H         5.71267255452924    4.80682250812155   -0.65296929625772
C         5.22659137757056    6.08029554167978    1.63340635112398
C         4.66976643912141    6.27573578446423    2.89518109187760
H         3.98244166701616    7.10440932479346    2.98450968691864
C         4.84171337416935    5.52666193679639    4.06122835724973
C         5.74985214565112    3.75178864763759    5.37304010264210
C         4.96353583533141    2.60454923693598    5.54452600448250
C         5.17705622971919    1.80542222731331    6.65813289824335
H         4.59048492524308    0.90921869841394    6.79435988167435
C         6.13118765440839    2.14177105406670    7.59899305679174
H         6.29053143707493    1.50812196331731    8.45926938274176
C         6.87197115126358    3.29721405258504    7.44195298269194
H         7.60264715996532    3.56205621584020    8.19146696282943
C         6.69597303790072    4.12036535609520    6.33852253448156
C         4.78409486541635    6.99651061846468    0.52109373612409
H         5.64816380733883    7.42698114149531    0.01689979354381
H         4.16504022255851    7.80139951977385    0.90486179372117
H         4.20604960132624    6.44132878344639   -0.21828681953281
C         4.00619192725161    5.96320309201800    5.24087916359050
H         2.94953435354606    5.90161161197391    4.98407690341882
H         4.23102789612321    6.99885499157452    5.48964780180630
H         4.19335809796605    5.33956347149314    6.11101129885004
C         3.90084696680023    2.23548271100584    4.53323306336280
H         3.79957904883641    3.05895002662883    3.81943819340981
C         2.54220362144378    2.02857327559942    5.20639093825668
H         1.76955061515519    1.89042810704074    4.45267630927122
H         2.28263801166691    2.89408608583401    5.81228338464058
H         2.54991887571523    1.15114901651937    5.84801227656319
C         4.31707545319818    0.98742658091445    3.75197002022177
H         4.49364008313588    0.15094932849740    4.42460102844204
H         5.23168788968670    1.18607780971190    3.19505403118670
H         3.53896377048892    0.70680653441494    3.04480710405127
C         7.50739875246937    5.38751704452624    6.20490893737878
H         7.21183746952714    5.89669059669706    5.28263736015834
C         7.23168801617620    6.32655017628284    7.38299276866759
H         6.16581402176308    6.52253545865123    7.48024038776103
H         7.74395468897547    7.27436011053968    7.23201282030125
H         7.58537372525652    5.89380737779739    8.31579882638870
C         9.00019124980594    5.07327535868236    6.09745931121350
H         9.34875617337540    4.50910742224109    6.95959343195222
H         9.57070077137675    5.99780531355481    6.03757055022406
H         9.18597516345233    4.49647141434653    5.19568497604982
C         9.44180422909328    2.94403733934615    2.68586275044559
C         9.45390949202194    1.65610046248309    3.26349665934580
C        10.35028467914576    0.70460098366926    2.80749677833270
H        10.34879681148696   -0.27920986164199    3.25831023777368
C        11.24022066367859    0.99227699925292    1.78886072646114
H        11.93071378488165    0.23893478151615    1.43817367660139
C        11.24680463473580    2.25988157326493    1.23206053517763
H        11.94894830257478    2.49719569446321    0.44351306069384
C        10.37087126676571    3.23798265728589    1.66560922204675
C         8.49222956072891    1.34748879661866    4.37171162844049
H         8.40639677512767    0.27457990841031    4.53181162221933
H         7.50312195610198    1.76133850502393    4.15091725120198
H         8.82066102906142    1.81219245439438    5.30124356020747
C        10.40556465246630    4.61540391961792    1.06894438412933
H        10.56999439077176    4.57130736721155   -0.00721764646295
H        11.21314357069919    5.19794332251312    1.51378270933321
H         9.46946311455467    5.13015064870211    1.27749465380596

