111
CSD_code = MIKGAQ | q = 0 | S = 0 | Stoichiometry = C48H40CdN10O12 | MND = 6
Cd        5.81965546612349    5.22937744899980    0.00869322349521
C         3.71693706513679    3.32367520885781   -1.11355634162428
H         3.63884279168753    4.24474191356860   -1.67092140356389
C         2.96755990487417    2.20890676034713   -1.45527881723305
H         2.28811285422443    2.24679771695214   -2.29190410845542
C         3.11541026374824    1.05324805927021   -0.70755589275123
H         2.55052407751935    0.16265747144421   -0.94078509119022
C         4.01281036942700    1.06203937787903    0.34656623361543
H         4.16585429874042    0.17966031964788    0.94943855928454
C         4.73110734865806    2.22155377938578    0.61397601395289
C         5.72822199258758    2.27147585325461    1.74341564473986
H         6.03412967124094    1.26303358761394    2.03000496441356
H         6.60208302096346    2.83749847333366    1.40742197146988
C         5.38689952228059    4.26222510867685    3.12120336741752
C         4.90043027629500    4.82733612695698    4.40903623394906
C         4.64060002188889    6.19646121434237    4.43011124483191
H         4.80740162844727    6.76022038774528    3.52370029786313
C         4.18229801820471    6.82002442880491    5.57425623966913
H         3.97607247272952    7.87818089812150    5.56475461778987
C         3.98481974114880    6.07612058582052    6.72389189148916
H         3.61556043249640    6.54625608779935    7.62289995564793
C         4.26284160332492    4.71987690739541    6.73639363950215
H         4.10325153977205    4.15385778942558    7.64109485280596
C         4.72536577725088    4.08505696263370    5.59094270876259
C         5.30634702100903    2.05290627454695    6.75177671017430
H         4.38881115822407    1.65938747139204    7.20460235051238
H         5.81398028607870    2.69600635374563    7.48181630758503
C         6.24447134866053    0.87328324830774    6.43907620475310
C         8.05888084489312    0.35547181831889    4.82938640187578
C         8.36527516538719   -0.93297710047217    5.19250136839474
H         7.83497083120192   -1.40027355882883    6.00577216131270
C         9.36570471149669   -1.63390647284064    4.50309565180595
H         9.59037700091126   -2.64521907332609    4.80725555736685
C        10.04802418320735   -1.06411395306579    3.46308419926601
H        10.81298557958306   -1.61289493074643    2.93363197494961
C         9.76114804318674    0.25773344716180    3.06532408337706
C        10.40369805424889    0.92039576566880    1.99705323408346
H        11.15871368953746    0.39682391657176    1.42803777782688
C        10.05708549319211    2.21031851599143    1.69686679054879
H        10.50631955812523    2.73970651987313    0.87235169682239
C         9.06574830991489    2.83925291843652    2.46987111299270
H         8.77086731799322    3.85846710210821    2.25574291442000
C         8.76184421006364    0.98179609337486    3.76095351132006
N         4.57394141761400    3.33249309621056   -0.10193464106925
N         5.20117892262398    2.94687364184475    2.91247721491168
H         4.70489814092681    2.40009613909919    3.59795876997556
N         7.08164741780086    1.14987636567037    5.41940862649748
H         7.02192795536687    2.05790298130533    4.96017038262131
N         8.43549803890323    2.25448843626027    3.45420455477720
N         3.61827985326450    6.95236563778141    0.94958120125348
O         5.94072028911731    4.98464782809807    2.29508227457674
O         5.03468118836180    2.75091223885604    5.55388432718985
O         6.20791864081537   -0.15162614250892    7.08166534166782
O         3.76216788053866    6.07765189289981    0.05672647088501
O         4.61928143108714    7.44478627574370    1.45527232521013
O         2.49822520752919    7.29226339678339    1.26435878758277
C         7.89649269836361    7.16263626254798    1.12712710272682
H         7.97559311958884    6.24828153889658    1.69534089225031
C         8.64179950973855    8.28345066643415    1.45762083029448
H         9.31946008238494    8.25724285664747    2.29613203886053
C         8.49232017893891    9.43001671652754    0.69633358207862
H         9.05383764558419   10.32494288691618    0.92085507131756
C         7.59724992916413    9.40670652746838   -0.35953299897531
H         7.44260517745532   10.28182995578483   -0.97249546584589
C         6.88326374693381    8.24193291599462   -0.61552655979187
C         5.88825970107707    8.17628800836673   -1.74620396333823
H         5.57375380695145    9.18025703724557   -2.03913724686096
H         5.01922913568690    7.60380352931703   -1.40850792338617
C         6.25110023775108    6.18048625814102   -3.11074369586372
C         6.74408560867720    5.61184970278404   -4.39452232728644
C         7.02083229729223    4.24595859065720   -4.40554662395464
H         6.85831578015274    3.68624479572991   -3.49597244100247
C         7.48836239102019    3.62002478467948   -5.54463468273287
H         7.70827172097382    2.56472877241592   -5.52727324434611
C         7.67727072566873    4.35818585569470   -6.69939552817014
H         8.05363226285100    3.88640356212780   -7.59458468881391
C         7.38070169862566    5.71040053651931   -6.72240890054503
H         7.53251133703283    6.27135615102293   -7.63155963936497
C         6.90931851162289    6.34757758558975   -5.58189001067822
C         6.30894363795376    8.36414592753509   -6.75897041705947
H         7.22618881277586    8.75363207180468   -7.21590517546661
H         5.80117760367592    7.71397385527603   -7.48277369352235
C         5.37159505439761    9.54701716093211   -6.45690507634486
C         3.56076415480563   10.08410653735948   -4.84997235489710
C         3.25755422510705   11.36987592656593   -5.22516921669595
H         3.78652669518476   11.82694321143989   -6.04508173076704
C         2.26256420870999   12.08170952871759   -4.53908682174420
H         2.04034783767685   13.09059080468176   -4.85294045609832
C         1.58266948245568   11.52547234003020   -3.49019915673321
H         0.82222751284978   12.08270754009439   -2.96306813635074
C         1.86615041430082   10.20669586705412   -3.08005125603824
C         1.22644484553426    9.55822315193647   -2.00138716155047
H         0.47697896302917   10.09132172493880   -1.43386362286844
C         1.56912868661077    8.27009967647543   -1.68929653507900
H         1.12303531128108    7.75144550025728   -0.85630057276296
C         2.55314605065406    7.62866759713826   -2.46131758667540
H         2.84356900429251    6.61007677800301   -2.23869312143288
C         2.85928278292051    9.47133272457083   -3.77273588159503
N         7.04212676228695    7.13989781806009    0.11349343154996
N         6.42289852738852    7.49906286360535   -2.91080793411970
H         6.91305046249123    8.04652993982982   -3.60010126050126
N         4.53401608619128    9.28084782221572   -5.43477266978466
H         4.59253303028987    8.37707601466929   -4.96713882134238
N         3.18123042971213    8.20030473960088   -3.45466884635635
N         8.02316328100325    3.52157337171969   -0.92961323780008
O         5.70540351300335    5.45744597995279   -2.27986834240638
O         6.58064391455711    7.67731331557251   -5.55471058570358
O         5.40904967260423   10.56588916550880   -7.10900365556901
O         7.88745494690163    4.41309435262066   -0.05283553814978
O         7.01739896071786    3.00725859885292   -1.40401825120494
O         9.14005847535565    3.18678398307011   -1.26056554300644

