93
CSD_code = MIKHAQ | q = 0 | S = 0 | Stoichiometry = C35H52ClIrN4 | MND = 6
C         4.45074631886970    4.15631469602099    5.57346311250132
C         4.42041500561666    5.20394497363471    4.65386740343056
C         3.51873365810335    6.24026666832651    4.82552511717975
H         3.53305565019037    7.03326777331873    4.09500499673986
C         2.63008352885943    6.28031819614217    5.90511192376959
C         2.75488854042327    5.26449300360252    6.86125232376442
H         2.13099938135764    5.25942739514598    7.73940570403489
C         3.64684164211661    4.21973701814322    6.71683573474496
C         3.74427162188429    3.18803274529643    7.80000846266735
H         3.97899873236821    2.21210796616603    7.38628974151796
H         2.79811817925568    3.10707315700678    8.32765875407949
H         4.51394808731001    3.47042330737205    8.52192032478951
C         5.38730090995683    5.28470734189918    3.50840054838953
H         6.02616439675337    4.40843934061968    3.46710067716044
H         6.01509612677065    6.16926805722434    3.62242577301121
H         4.85553284163162    5.37286489539434    2.56433821483516
C         6.13586619614739   -0.16841541133163    4.12136463689491
C         5.39419919176481   -1.25247519570947    4.59495254705567
C         5.52259129430595   -2.48173705864880    3.97457108604665
H         4.93982927298121   -3.29608680297667    4.37177599414037
C         6.37864366100331   -2.68635498283996    2.88510140850509
C         7.12830100485178   -1.58470160238606    2.45395924422954
H         7.80323636907288   -1.67356008037873    1.61860433697332
C         7.01428072307650   -0.34222465256792    3.05116063519621
C         7.83479418899593    0.80342456245333    2.52965186722173
H         8.00429070179800    0.69477641458389    1.46083151473734
H         8.80920651897294    0.82951241195966    3.02000789381864
H         7.33231678629514    1.75123801128110    2.70744154994441
C         4.48482209307161   -1.09417533541025    5.77096764338705
H         3.70628808408311   -0.36226404158681    5.55511204669192
H         5.03577765478380   -0.73875656736739    6.64101831470680
H         4.01103909785179   -2.03836513218771    6.02478165920552
C         6.07285333429243   -5.85669208304554    3.75258072254740
H         5.31147453206076   -6.58489828818747    4.02093135653508
H         6.28890677956501   -5.23901761660843    4.62041841870771
H         6.97745221085407   -6.39297114225184    3.47705917272348
C         1.39842909538011    8.18000815769255    4.94161423853785
H         0.33758240076811    8.44152503952796    5.00034408429037
H         1.55057125732932    7.66152833562866    3.99150433557812
C         2.23149360006425    9.46396573519210    4.97819610526437
H         1.96671413347326   10.10815690298423    4.14338601528226
H         3.29178997974841    9.23256776543970    4.92244129586962
H         2.05098851714720   10.00402638484707    5.90473193353610
C         0.86744956330585    7.40820532697946    7.20465887307273
H         0.56253031554183    8.45527373334995    7.29438977926327
H         1.44957555633216    7.16521511093190    8.09695025091282
C        -0.37805900271809    6.52063401801843    7.13168586634398
H        -0.96774438261368    6.62494861540211    8.03896691661103
H        -0.09494967076289    5.47836160833235    7.01275886483305
H        -0.99611315582409    6.80305560643978    6.28228100188241
C         7.59468195333869   -4.21372445395002    1.39854288520069
H         7.67959419353812   -3.46314962415827    0.60491789105817
H         7.39292185216244   -5.17144715371806    0.91382364927513
C         8.91957391928493   -4.30638234886872    2.15954283593504
H         9.73069792455997   -4.51935843635181    1.46753538004343
H         8.88009804051911   -5.09762076612011    2.90321240466964
H         9.13028337376002   -3.37052917824407    2.67017728206875
C         5.58134798340643   -4.99177882644609    2.58806455854931
H         5.46491849597984   -5.62197507948630    1.70001558454178
H         4.59625346618998   -4.58081406668315    2.82001828428572
C         6.57059280537444    2.92400555489494    6.09349706553336
H         6.41708443723820    3.04545633549472    7.16778449481090
H         7.26529355403532    3.70334594972083    5.75743801453729
C         7.03525436251538    1.51858148103226    5.71429783793720
H         8.03069967999311    1.50675925758971    5.26272176668646
H         7.04062364385445    0.83141458859377    6.56762653575437
C         5.03085074149625    1.98517445107835    4.59718960310563
C         1.54834838427916    2.76503288800168    2.65039582973752
H         0.98380614707419    3.18533691863149    3.48062420111600
C         1.94108197312740    3.78607984706740    1.60963819854121
H         2.11160984751239    4.73472886284310    2.12445433113875
H         1.10750427170723    3.93928173198051    0.91429436986230
C         3.21540168552015    3.40278194352334    0.83573667883083
H         2.96078846857378    2.84232095700790   -0.06544165458740
H         3.71443379315198    4.31802301019380    0.50715998024221
C         4.17356909382165    2.58489976671339    1.68110322602645
H         5.15060099089933    3.04633693464500    1.79284316286685
C         4.15631649249292    1.17517543299540    1.71538920030605
H         5.11211568445003    0.67719879360522    1.85207214127927
C         3.18442846554009    0.30451783199597    0.95077142760096
H         3.29167832125749   -0.71430334788151    1.33019417103659
H         3.46669981476007    0.28619270544290   -0.10850660122169
C         1.71920422589593    0.74661062578393    1.10328872999094
H         1.44181123284406    1.43545348345686    0.30352533879807
H         1.07273230526654   -0.12893137431275    1.01195720256573
C         1.47471522125451    1.40536769789687    2.43922952595029
H         0.87997293977823    0.81934493124367    3.13362115095936
Cl        2.15702107562176    1.58953484411940    5.51487658537269
Ir        3.32156509224559    1.90805250177463    3.51306658800264
N         5.30904491504964    3.04270979956742    5.37160174735872
N         6.02638708342989    1.10120854211523    4.74358673509302
N         1.70955386104917    7.29162399696435    6.03710888049193
N         6.46461566165082   -3.90255129262399    2.24549235543375

