56
CSD_code = MIKHUM | q = 0 | S = 0 | Stoichiometry = C23H24ClNO6Ru | MND = 6
Ru        8.65117980206390   10.94460866480384    5.74102338973252
Cl        9.67792022568662    5.94170568406454   10.06320987308080
O         8.84997648795079   12.93782495266072    6.22832409505292
O         6.65705941228845   11.10341187614659    6.61309468648385
O         9.99539705449182   10.57929627523972    7.32695782909930
O        10.36964302662260   10.88077649485321    4.65107641323947
N         8.41535089950557    9.02313734771240    5.20435643247423
O         7.75319774262406   11.49562306572541    4.04051572660359
C        10.00037078820969    7.78714517423484    6.55270548651801
H        10.77586219746909    8.06175476247691    5.85296393350690
O         7.64999686071452    7.96223622649783    1.08484012070085
C        10.30379901581325    7.09190070495063    7.70581701176323
H        11.31944435586598    6.79330981683120    7.91382521583023
C         9.29206186561243    6.78438531931782    8.60356791022270
C         7.37631157200482   11.56658184453082    1.73808663360146
H         6.65075599493771   12.31741683568335    2.04360323237845
H         6.92750699917800   10.89929403864821    1.00950332203818
H         8.21816154914731   12.08476838986792    1.28294285789335
C         7.83212758933879   10.82082756466050    2.97834392173360
C         7.28838652160015   10.87808254633924    7.59967833118382
C         8.37483897396636    8.59171926377861    3.97229516072372
C         9.71904874922921   13.65725874342186    5.68046039805530
C         8.68804890725768    8.19358953643361    6.29919274796770
C         7.97965997492815    7.14937855832796    8.35122232358088
H         7.20178774874120    6.89654637720735    9.05391135875419
C         8.18429731106228    9.46408005710442    2.86763315417162
C         8.51811921952033    7.11823760226472    3.70060179140354
H         8.43577258289529    6.54574766223158    4.62076267787115
H         9.49056725088895    6.92181111539558    3.25052675041081
H         7.75528331354214    6.78984992438526    3.00011808587299
C        11.34548018194838   10.39793721958895    9.27050655487722
H        11.38754005912070    9.43050191780623    9.76808914999093
H        11.46963006838737   11.17448565298327   10.02204588690205
H        12.14887845796302   10.46063249711601    8.54150195982107
C        12.15992033067099   11.76657679891098    3.41235812187277
H        12.23150629423967   10.72347144526492    3.11567898064391
H        13.08300537663221   12.06439807760537    3.90392535796291
H        12.02633018883028   12.38849449781262    2.53041144532747
C         9.67830185741106   15.13513675384205    6.01308532140218
H         9.49743792583104   15.71077805803163    5.10813384957773
H        10.62798131578952   15.45189819312661    6.43781253263581
H         8.87928241842195   15.32447677955410    6.72487885310769
C         8.30858404421705    8.89012935288486    1.49568743883785
C         7.61428688985384   10.63320773083067    8.81723724525133
C        10.98762043065650   11.94406546580967    4.36052407560064
C         8.84262170435766   10.52132635709416    9.39719559564824
H         8.94998186268648   10.33678243674746   10.45496021998049
C        10.01301576036699   10.54880289650076    8.57823493549492
C         7.67902435732285    7.85197331543864    7.19937020897872
H         6.65997964728310    8.14672697838050    6.99321093878772
C         9.39396591215831    9.51724536848260    0.64476270642566
H        10.13568232917956    8.74456759562177    0.44509653407656
H         9.87378666473994   10.34986091824244    1.14672198683609
H         8.99113600700773    9.82892589424219   -0.31622254250813
C        10.73157724169724   13.24084915553700    4.80315427095339
H        11.38960868006789   14.01274221674999    4.43177749956045

