42
CSD_code = MIKKAU | q = 0 | S = 0 | Stoichiometry = C18H15N3NiO2S3 | MND = 4
Ni       15.11848223472034    5.07420521268997   10.84038833283353
S        17.12401549752975    5.75959048798135   10.52109300678330
S        14.95972699738370    5.93311575193706    8.87671502641687
C        16.67528383350033    6.07095126227614    8.87125200155653
N        17.39293020566820    6.34465277032557    7.87246667344178
S        19.05046932674062    6.34486202812689    8.03148706734830
O        19.47795940872238    5.08739146614476    8.58352765670030
O        19.59010952558880    6.74293780722586    6.76844372009063
C        19.34610538752329    7.64757585772877    9.22426959798129
C        19.94391996905763    7.35776393574234   10.43375976098859
H        20.24270080763145    6.34026077833199   10.63174094308244
C        20.13883143971318    8.37461472107995   11.35139269400538
H        20.60710635163748    8.15999350919009   12.30124568751953
C        19.73615436923307    9.67514803253196   11.06412600694851
C        19.13607971352604    9.94155185076492    9.83753496595174
H        18.82126101256153   10.94862337606963    9.60519206277523
C        18.93917263361439    8.92925939497537    8.91460210396651
H        18.47925841042926    9.11354890725443    7.95628635062775
C        19.92836730241960   10.76549835393545   12.07410486976081
H        19.11910094866106   10.74044500366961   12.80449074233476
H        19.92486599213141   11.74263040216107   11.59804397247794
H        20.86619250741417   10.63539470300123   12.60940347269077
N        15.35694556032441    4.25795867340981   12.62125605707987
C        16.47095228232973    4.21516711304265   13.34523028196605
H        17.33681494762434    4.71042483401011   12.92299567076725
C        16.54249819919172    3.57558059256566   14.57202304152454
H        17.46874254176210    3.56619035518036   15.12292373585218
C        15.40710161991828    2.95248271510513   15.06587225948976
H        15.42501582307364    2.44157331757117   16.01645067117917
C        14.24482618894616    2.99396664573404   14.31634374315889
H        13.35271770936545    2.51316991917430   14.68229276898914
C        14.24307888605150    3.65621809252386   13.09093471309144
C        13.06672819176297    3.75401689137960   12.21357971110113
C        11.82134679740320    3.21236011858015   12.52291327204500
H        11.66579517320634    2.68763324917209   13.45104836455702
C        10.77683933310177    3.35165631687648   11.62634451317443
H         9.80615054878883    2.93677185659133   11.85106847368895
C        11.00258426386178    4.03110278585722   10.43935694342078
H        10.21730426394343    4.16117470507016    9.71277301035227
C        12.26530220191586    4.54619275915747   10.19575781772475
H        12.48258724116527    5.08270485129516    9.28039607578235
N        13.27257435085814    4.41543859455652   11.05417215877032

