45
CSD_code = MIKQEC | q = 0 | S = 0 | Stoichiometry = C16H23NO4Pd | MND = 4
Pd        0.16781535778956   10.10162508167259    3.21358957119148
O        -0.39328099713218   11.06766629139871    1.50004818890994
O        -0.31049551454955   11.72753182576934   -0.62748637818470
O         1.81407892884773    9.16805839407905    2.09486387657820
O         3.14249309052699    8.86837728958731    0.31384063664122
N         0.61126649273102    9.11701208680369    4.95185464411000
C         0.05270044721325    9.84980427231322    6.10485585645443
C        -1.21342090258668   10.54548672810799    5.67303079467666
C        -1.31466729387906   10.84185736998332    4.30580074265435
C        -2.44751791870786   11.51179799372667    3.86121075358594
C        -3.44484121596977   11.88648880826871    4.75143375764990
C        -3.33009273834067   11.58631113098330    6.09735209884483
C        -2.21197209645851   10.91262651971767    6.56097285829309
C         2.04116754834092    8.88030856219968    5.13058142451210
C        -0.08478816556288    7.83757736027199    4.78868481923999
C         0.20546929320393   11.00203142729253    0.39580573741767
C         1.34750449836683   10.28436775910313    0.03910383677188
C         2.05762193222918    9.44473507556582    0.89761701212577
C        -1.47849654782270   12.48711210806360   -0.34113244216767
C        -1.86653289622790   13.24698678453288   -1.59684648284115
C         3.92225917838885    8.01375529484630    1.13522037061327
C         5.10982370896269    7.52758036351321    0.32388459022864
H         0.78096507252149   10.60743210872985    6.41706869001612
H        -0.11220022756400    9.16706170183186    6.95154187546332
H        -2.54807701316767   11.75188952090256    2.81022966875313
H        -4.31718661072332   12.41387078664203    4.39185800414370
H        -4.10934766721247   11.87527265611006    6.78748271133856
H        -2.11620215176487   10.67633469993718    7.61229307606348
H         2.56470176603754    9.83627828993207    5.19698447027411
H         2.42727771798045    8.33337359885943    4.26993056290498
H         2.23336984324524    8.29977203172043    6.04305940724016
H        -1.16239139528403    8.01327996078296    4.72463491063494
H         0.11844679723157    7.17219648352815    5.63980656375622
H         0.25531956252578    7.35087918791114    3.86920854695582
H         1.70496494664473   10.38643217535261   -0.97012167967236
H        -1.27028465114876   13.17424786993621    0.48844385578891
H        -2.28269391798572   11.80902891052624   -0.02847910503342
H        -2.75804409570056   13.83834611390317   -1.40786330337210
H        -2.06417653088648   12.55054207999213   -2.40704670856458
H        -1.05711278764318   13.90623428041096   -1.89781119811098
H         3.30643835120695    7.16848344906448    1.47092014136508
H         4.25607304230291    8.56694317326768    2.02323843874122
H         5.72497832112495    6.86705894671942    0.92885433170628
H         5.70728048689802    8.37428893518214   -0.00241668008867
H         4.76400695204238    6.99035451099959   -0.55480284760879

