56
CSD_code = MIKQUV | q = 0 | S = 0 | Stoichiometry = C23H21N2O9V | MND = 6
V         4.99488577800925    3.72739161182978    6.57631580412802
N         4.05894618640862    1.95303966437475    6.53630441613886
N         3.52977260962574    1.62082764338784    5.36648748850052
O         4.87306003127743    3.57967132252438    8.23569217243458
O         4.17147427514527    3.71333518933239    4.86459760887877
O         5.84939554017944    4.22254849738082   10.60834464056999
O         1.90287860247305    1.79936591837928   -0.77362851870174
O         1.41839633349356   -0.03509102980124    1.08968872834108
H         1.21948146915741    0.02305090165996    0.14488436086812
O         2.72084921654767    4.60282962134715    6.92690652571958
O         5.18781356395974    5.44750377803931    6.35738849888650
O         3.32387729202469    8.45655242070409    5.82623447828325
O         6.32266934073881    3.08440944763305    6.18916121539732
C         4.60704694561606    1.32589515690545    8.79094794774571
C         4.99723760198111    2.64263370968177    9.12194811938796
C         5.50145346162534    2.92300172489747   10.41812697809798
C         5.60246413338796    1.90143784734508   11.34350115588282
H         5.98729969473359    2.09302662469707   12.33262610978185
C         5.20364037512662    0.60566317323365   11.01077702153632
H         5.29013854793546   -0.17251000341018   11.75329213193225
C         4.71039106231404    0.31693743532639    9.76293260185807
H         4.40749221111683   -0.68736368133269    9.50974905067114
C         4.08295309232292    1.07500555785283    7.48477853698103
H         3.67429743641469    0.08702987709277    7.26886120973865
C         3.65665836571434    2.60547436781174    4.50451528269657
C         3.19835577142081    2.41188170524986    3.12296769321348
C         3.45970627417150    3.39244913156262    2.17251362188956
H         3.99882204615634    4.27958532268621    2.46924753403059
C         3.04797634901199    3.22814255899506    0.86123010449510
H         3.26695423803204    3.99729568566805    0.13761343238322
C         2.36390886757968    2.08255570766975    0.48854776713201
C         2.09143329051234    1.08704784965559    1.44885212734501
C         2.51185079053104    1.25517529036352    2.75303595420620
H         2.30867668727011    0.49173300522980    3.48415767295908
C         6.47735260043200    4.58828314871742   11.82052039647884
H         7.37621760434704    3.97607381184972   11.97713015034086
H         5.79105196823417    4.42867483272096   12.66470758171597
C         6.85221656903362    6.05801131260950   11.71429930133599
H         7.51215492318309    6.20640223402300   10.86403944110793
H         7.35510594940024    6.38058815912469   12.62165738674526
H         5.95855748217415    6.65810908509318   11.56646634480269
C         2.15886073669523    2.72532920561297   -1.80086783738072
H         1.68688157620987    3.69077977138267   -1.59497474628038
H         1.72241942480057    2.29482714320102   -2.70087612193989
H         3.23325847384415    2.86785798123842   -1.95036118808156
C         2.86748654520901    5.78476282122250    6.60103693406151
C         4.20691949107247    6.29125262425492    6.27063043877429
C         4.37160215305935    7.60184520666197    5.89004003663411
C         2.10361384057168    8.02662140488215    6.13093507335694
H         1.36404228996152    8.80978140098509    6.03818562119718
C         1.81339632059434    6.76349334563899    6.50992466109554
H         0.80225011805370    6.47271191163975    6.74281156709603
C         5.69372115508108    8.19514125712798    5.53187588291401
H         5.98953254044941    8.94248786737680    6.26803043192238
H         5.63939488255184    8.68249099546915    4.55972060466120
H         6.43530587302291    7.40004144520021    5.50636856603354

