83
CSD_code = MIKQUS | q = 0 | S = 0 | Stoichiometry = C24H53ClIrP3S | MND = 6
Ir        1.15935225920551   11.09635563479110   15.88864584200467
Cl        1.90630816262233   11.96858283920635   13.75185206878324
S         0.35507745575819   10.17801033186162   17.93302889175061
P         3.41636371736632   10.47289982259325   16.22857578160002
P        -0.90274700537936   12.19553040578203   15.49177901497220
P         0.54647165804281    8.90648388280238   14.80043916797551
C         1.69256384953975   12.81379333062504   16.86126094089179
C         1.61825587919361   13.25095155604404   18.12620155785176
C         1.06134006647258   12.53877975947015   19.26927644693719
C         0.54053760327063   11.29846042948464   19.23239643080233
C         2.16502985986622   14.63418938004924   18.41774943997272
C         1.05989970964175   13.23579482089011   20.60671527111984
C         4.62403120635920   11.82388893095699   16.59624536370972
C         4.93640787783389   12.72688333167130   15.40840148316395
C         3.82747320436128    9.30018828211558   17.60163838097855
C         3.78932060367848    9.94650688127617   18.98066128460053
C         4.19768897796760    9.69114712711663   14.74269473447441
C         5.63955743424695    9.21422270236949   14.86412746889477
C        -2.37295013515901   11.67852366518526   16.49794655362443
C        -2.46804313646527   12.35513198348750   17.85993490354168
C        -0.93273105471155   14.02595762570182   15.74098283695516
C        -0.13912697722986   14.79516407437048   14.69013858782922
C        -1.51163671413158   12.07861961263679   13.74841142613680
C        -2.82059987872478   12.77444609723593   13.39681774601319
C        -1.24499639910853    8.44472508159401   14.94373067941327
C        -1.70523875967967    7.16875418881021   14.24981616324848
C         1.32146791142674    7.35133632969129   15.48080319272144
C         0.80337005683755    6.91221384447966   16.84452882215922
C         0.92333030545317    8.56872741687704   13.01311973421858
C         0.21341845184949    9.47031748473495   12.01477845502282
H         2.14583638539162   13.51620873037743   16.16393099622334
H         0.15453247644779   10.85822602865606   20.14318953876506
H         2.55768008386313   15.08657718454020   17.51008339572802
H         1.38677755770694   15.28611291766577   18.81277963842412
H         2.96973721611782   14.58740037379243   19.15068965011791
H         0.61600114586867   12.59656573366687   21.36667058088242
H         2.07344095380371   13.48160712002720   20.92208629299935
H         0.48562306846937   14.16105995529595   20.56607656568381
H         5.54023392713029   11.36317605362352   16.97928532931156
H         4.17716565682328   12.41384734708074   17.39979974396752
H         5.42603925966346   13.63730872175233   15.75008356502855
H         5.59638649099366   12.23437973483376   14.69838601190176
H         4.02568278497046   13.00076043123150   14.88281236546955
H         4.81823316429972    8.87776156498922   17.41720496332290
H         3.09394970872154    8.49261921985911   17.56687471607057
H         3.88752162207661    9.18196892624036   19.74963113804450
H         4.59878725671617   10.66081883003212   19.10739994787837
H         2.84665024846618   10.46474470670331   19.13344945615260
H         4.11461786401864   10.45223881826397   13.96194934221181
H         3.56375170313607    8.85601060756180   14.43784916223184
H         6.00798859994769    8.93208923614280   13.87876880435049
H         6.29001518364473    9.99257819327957   15.25370410723088
H         5.71972801054138    8.34113176884488   15.50838751531057
H        -2.28421618257355   10.59995476787954   16.64631585626632
H        -3.28084573413834   11.87373244869732   15.92299362894936
H        -3.25005444811419   11.88049500157656   18.45047541960700
H        -1.52966477252373   12.26041053780749   18.40025522125633
H        -2.70880191633372   13.41085333775192   17.76623003725016
H        -0.50738552966085   14.20485210955555   16.73075752111428
H        -1.97678380460575   14.35297940746669   15.75130435918905
H         0.07265956452505   15.80279797228106   15.04325534359634
H         0.80362697770044   14.29696240701882   14.48117829139685
H        -0.68914946458723   14.87287101697606   13.75546420011714
H        -1.58438445570573   11.01965234511183   13.49803859117852
H        -0.69588736968780   12.49086609281043   13.14887146064273
H        -2.97913367216108   12.70986917336905   12.32120052413632
H        -3.67246777596292   12.30424827048325   13.88374352815450
H        -2.80597733304614   13.82592415063385   13.66939367335960
H        -1.83298823099760    9.28918774638944   14.57632116249095
H        -1.42680383617398    8.37894125734654   16.02088139148376
H        -2.75360723503264    6.98757463025744   14.48408782772985
H        -1.61469410764826    7.25084387944743   13.16933195532748
H        -1.13567265753251    6.30371141475399   14.57884850342125
H         2.39569147708585    7.53929715310829   15.55390796254898
H         1.18334080130143    6.54754761545601   14.75072597279539
H         1.44075813502431    6.12513797546305   17.24630365172350
H         0.79654071806599    7.74478370813381   17.54377519071231
H        -0.20790147532218    6.52030177536415   16.77678650444570
H         0.69420926120416    7.51844153510800   12.80763241497158
H         2.00165554517999    8.70548613251409   12.89704349641246
H         0.51313416667231    9.20481818224761   11.00182830147524
H        -0.86792703560812    9.36840314244644   12.08379223751633
H         0.48885383143470   10.50677575417282   12.18816427206370

