44
CSD_code = MIKROO | q = 0 | S = 0 | Stoichiometry = C19H18CoN3S3 | MND = 6
Co        1.49629141814210    4.43002883102742   12.15420251449622
S         0.54760759724804    6.33611088656843   12.91447703765938
S         3.05625724208622    4.57211404597833   13.78799185498027
S        -0.11177556536803    4.03544173098931   10.36478645135949
N         2.29385366784982    2.76189904837369   11.51973459601515
N         0.15411412803507    3.46546025782460   13.29744202642087
C         0.22218790590360    4.87601050109807   15.25908899476322
C         2.96136081233090    1.80378482492404   13.65200014669757
N         3.27303189232825    5.94561499124291   10.29522161987306
C         0.81555566507079    2.66748229367768    9.57082597906842
H         0.26797801278160    1.74760698509738    9.77286149389248
H         0.80763153072307    2.86499106408356    8.50012569005054
C         0.49374117748174    6.11176385055878   14.62512074136267
C        -0.15815684169144    3.71552833794020   14.51656828007174
H        -0.83685637640483    3.03125829998665   15.03650082907777
C         3.07932610884637    0.55674041205969   14.28827791246684
H         3.01112412025202   -0.33898455113715   13.68566352816467
C         0.18457936256749    4.82351768997288   16.66062499361773
H        -0.00385220980693    3.86927566612779   17.13379379641950
C         0.65764972135213    7.24932180536848   15.42389527453693
H         0.83806746087461    8.19140715043634   14.92968267479893
C         3.26439503282121    2.85093933278008   15.81474731648969
H         3.34701875599199    3.75642995996880   16.39638273234714
C         0.40987671441792    5.94230678225918   17.42392273627764
H         0.40288763722292    5.87799060702385   18.50144064562437
C         2.79579643370796    1.81622285803088   12.23065373814611
H         3.12614860318617    0.90472635180785   11.72269018715802
C        -0.57843011457792    2.43937196618813   12.60127678669659
H        -1.33323804509619    1.96906808460454   13.24919641897245
H         0.10806092537031    1.65922434895739   12.25453448025609
C         3.05848011552634    2.97789796309021   14.43334412754123
C         3.25130741346164    0.45643829467263   15.64682191789251
H         3.31927399097675   -0.51244284753409   16.11734791437900
C         3.34853858673390    1.61807165553515   16.41372010869250
H         3.49159332844987    1.54700162096290   17.48169063818809
C         0.63203180562009    7.16750767672195   16.79527070486766
H         0.79372568300077    8.05479792774100   17.38924600123396
C         2.60646904903947    5.40099358098421   11.05260363663123
C         2.25211081450175    2.58873788814202   10.08545822516535
H         2.69299449667162    1.62651985614565    9.78763380844655
H         2.83552331007198    3.39670086121078    9.63280591015543
C        -1.27593488668256    3.08817162845641   11.40783584164905
H        -1.99513520615986    3.83289441913882   11.75093183601229
H        -1.78271127484537    2.35575506091495   10.78025785140347

