43
CSD_code = MIKSOO | q = 1 | S = 0 | Stoichiometry = C18H16N2O6Re(1+) | MND = 6
Re        6.92697045526999    3.30702203047800    2.73440939766835
O         5.77774010144854    4.84675374346130    2.05242181341416
O         8.09206946071308    1.92351318630734    3.78188410136368
O         8.33873157078728    4.18260146340193    2.55872896969060
O         5.73731113908345    2.12985028997777    2.77299510384178
N         7.13387830637091    2.89261193702587    0.64497252829105
N         6.38218999566704    3.89968095399666    4.65878834564478
C         6.11042496524861    5.64128042936437    1.07568104674450
C         5.71248581568451    6.99530025240387    1.13017939452502
C         5.96393324724762    7.85678337468928    0.08894523067067
C         6.60970418614407    7.40636595351642   -1.06193925827235
C         6.98564488334379    6.08241830793357   -1.16269473463345
C         6.77166707593156    5.19066319487005   -0.10907695070163
C         7.10120018152463    3.79403464662823   -0.28947266573268
O         7.34438428129779    3.34868405014020   -1.50704919978590
C         7.57728702452637    1.93588466108407   -1.44025137768059
C         7.40802809261042    1.59513498336367    0.05254013683159
C         7.69400401634617    1.25572245581957    4.80430388386800
C         8.33156190634642    0.02357650626875    5.10670191710258
C         7.93167129483278   -0.74502890673698    6.16808627122628
C         6.91542205114690   -0.31003010887662    7.02571525066444
C         6.32441659089925    0.91363113749699    6.81226518547911
C         6.68044049988779    1.70930597419241    5.71495415619261
C         6.17697253199298    3.05345924204270    5.63482599677671
O         5.52863165514564    3.55202911166664    6.67013416277495
C         5.21486180490399    4.92350387177635    6.40642924338507
C         5.85269926807858    5.19679021363729    5.03319353959625
H         5.21673061958567    7.33853414881067    2.02509655181537
H         5.66252529173431    8.89013430154778    0.16603770577325
H         6.81348309628854    8.08962263676733   -1.87078503711102
H         7.46328210470984    5.71400856248599   -2.05737189564169
H         8.58426345418495    1.73926428644172   -1.81568941935208
H         6.84686588665675    1.44317370677860   -2.08562458703332
H         6.57126331177281    0.92095391255882    0.25267130201813
H         8.30994775621515    1.17869159945456    0.50904436565847
H         9.10015602714306   -0.30892298473161    4.42710288677549
H         8.40543332857827   -1.69909723136329    6.34305041048442
H         6.60854037411486   -0.92473853940956    7.85646402304990
H         5.57249834359136    1.28710744493483    7.49030672012167
H         5.64038452320735    5.52849472092406    7.21003393243256
H         4.12694341244797    5.03030921190166    6.41038066545690
H         5.13198842108899    5.51997427484243    4.27473387638180
H         6.66806164619969    5.92564699212710    5.07187701022611

