36
CSD_code = MIKWIM | q = 0 | S = 0 | Stoichiometry = C15H15AsMoO3Si | MND = 9
Si        7.04827437919846   13.46688656021123    8.79299062431691
As        6.51380959063834   11.38495703900971    6.45282512172362
Mo        4.90977760070105   10.27556847307298    8.23265538782497
O         3.43645605494313   12.21615679775333   10.10003298555486
O         2.54325197654954   10.47685728751814    6.27710744032451
O         3.27599595379169    8.05233456548325    9.59114518154554
C         3.96690478669297   11.48652678345869    9.38720079471067
C         3.40920321266081   10.41525206578137    7.02819662264694
C         3.86579756473895    8.89201015281617    9.08120388310155
C         6.84258435187851   11.64346110548198    8.27094741094375
C         7.03052298512134   10.60799615698446    9.20922748969657
C         6.86621986553672    9.25096822597232    8.94862872255191
C         6.62196019136388    8.67234335091332    7.65252200803324
C         6.54688417732257    7.26399391807810    7.53687403615556
C         6.26806708080473    6.66151154852752    6.34053406696522
C         6.05243232888747    7.43895613280087    5.19634709735940
C         6.13224340655292    8.80405654422485    5.27572613469593
C         6.42162015101387    9.46478575367296    6.48878711872340
C         8.71556266112135   13.99831125149269    8.02070298426946
C         7.02657455448257   13.65947939258181   10.68750481508727
C         5.62995874430579   14.42874626715870    7.95772607278768
H         7.30948893941997   10.88241906495512   10.22743717146284
H         7.06554469213170    8.54787647598044    9.75604912791951
H         6.71902604077327    6.66446351948914    8.42213812724849
H         6.21453726000617    5.58524858593034    6.27577895538175
H         5.83052625920151    6.95880684849162    4.25516532873524
H         5.98832540762887    9.41302698664587    4.38598413697892
H         8.89543214772340   15.05823528641908    8.16279224447561
H         8.70823807672753   13.79792360229963    6.94872576892722
H         9.55515607109787   13.46216716900776    8.45415848568294
H         7.04354690057636   14.71062051937067   10.95402690256550
H         7.88675667530902   13.19197069552660   11.15723826732865
H         6.12823700011535   13.22675133629408   11.11798942836198
H         4.66160841537632   14.10460565060687    8.32984820853880
H         5.64733145383103   14.25458059396951    6.88024332705621
H         5.70964304177129   15.49734429201497    8.12723852031213

