82
CSD_code = MIKWEK | q = 0 | S = 0 | Stoichiometry = C42H25MnN8O6 | MND = 5
Mn        5.86659377258486   -0.68496538477552    4.79225747715578
N         4.41831719594619   -0.19425829679873    3.75078414404745
N         5.44579080217393    0.72443077440810    5.99025978376367
N         7.64173127224077   -0.92757684925095    5.42537584009827
N         6.31598284219677   -1.63954046493713    3.26843903451336
N        -1.19573862335892    4.93947424966222    5.44451573786969
O        -0.99388598438728    6.12331104153572    5.62001308234845
O        -2.29551778663053    4.43375298035285    5.35160106953180
N         9.78750542838584    1.95327279867905   12.37828558622481
O         9.15472463594861    1.74104949685658   13.39216134355289
O        10.89175572190223    2.45562353065505   12.34732944357599
N        12.79272470423962   -5.77921408348273    1.95783859996006
O        12.52399524626275   -6.91452681304814    1.62178433289422
O        13.90896470020071   -5.30265096760713    1.94567302460026
C         4.30920583474641   -0.79437041978276    2.51456437713450
C         3.15558786574456   -0.29254285073719    1.86285742794745
H         2.81967929982755   -0.57185600626332    0.88330726065801
C         2.58893182073351    0.62700524727786    2.70561593848742
H         1.71406015484882    1.21998795217925    2.52002387781101
C         3.39262198138052    0.68099792031668    3.89108045845838
C         3.30742384724373    1.50683095546259    5.02612555123346
C         4.31032088767048    1.51103320275775    6.01127678865264
C         4.32484978759104    2.30865473313750    7.19682463747676
H         3.55925916709718    3.00030977171499    7.48936570082214
C         5.47325057265004    2.02273243004497    7.86813774514726
H         5.81608259529468    2.46229355242475    8.78436881324565
C         6.16761656816094    1.02415933862423    7.11621485127047
C         7.41119024114291    0.45934740887192    7.43705599983330
C         8.10446751978136   -0.45032832071687    6.62541649490521
C         9.36429788806013   -1.05947922494809    6.91871908655208
H         9.94169070236118   -0.89931616734197    7.80807975553855
C         9.66628853175974   -1.88525802731710    5.88017544185579
H        10.53141370855757   -2.51144292907258    5.78115357964145
C         8.60056475299434   -1.79210953823306    4.93334753291132
C         8.51630927220854   -2.48285440175469    3.71139022931674
C         7.39147987024820   -2.36439245481428    2.87550141598649
C         7.15402546839654   -2.83738074405076    1.54323743863126
H         7.83800915698812   -3.42363693937183    0.96022311997947
C         5.92078054337763   -2.38340588944171    1.15695344096645
H         5.43481389396216   -2.54084765158610    0.21385197660467
C         5.40395878554179   -1.62320997232414    2.23557566651017
C         2.15206328841515    2.40442815686772    5.14798656036561
C         0.85848331566329    1.88364931187773    5.05674783309783
H         0.72473602165192    0.82071664694590    4.92258283402483
C        -0.24076220491088    2.70881157461820    5.15615304538807
H        -1.24568225297934    2.31955093639728    5.09674585078658
C        -0.05234908177564    4.07448700595270    5.34029969608817
C         1.22715010364141    4.61405835766400    5.42051130420100
H         1.34138358967759    5.67944167169716    5.55054017881174
C         2.32036350928558    3.77967430818368    5.32569057670392
H         3.31737315676998    4.19091082537062    5.36402227401566
C         8.03155264090957    0.85598841001488    8.71370708552454
C         7.36085114952760    0.62490879275464    9.91645886525575
H         6.39255800639018    0.14801239565645    9.89676193466396
C         7.93217058004992    0.98107202279773   11.11940476445823
H         7.43007301086616    0.80108273555330   12.05770733373725
C         9.18646804975388    1.58192895404335   11.12588570806626
C         9.86687239723646    1.82748828380705    9.93813711486029
H        10.83520475145558    2.30283855399704    9.97503446855571
C         9.28879999995225    1.46196672716519    8.74067695451514
H         9.80141216705182    1.65901796334694    7.81155632664651
C         9.63086733435807   -3.32892914579524    3.27016365679655
C        10.93474973828190   -2.83038927262161    3.21131688292971
H        11.12171168615556   -1.80340895395100    3.48514041058562
C        11.97267528089979   -3.62782896118779    2.77942901617239
H        12.98363216450065   -3.25424603196605    2.72128917122393
C        11.71303379504096   -4.94162510856926    2.40330247825683
C        10.42114911477005   -5.45506557400956    2.44950587795255
H        10.25091999307351   -6.47848406083010    2.15191221522947
C         9.38913568890264   -4.64815461699009    2.87704229064045
H         8.38399286882818   -5.03903579624757    2.92723888169510
N         5.03495581723121   -2.11231877995869    5.79206026382404
C         5.62678754830607   -3.31956254196522    5.94843382637063
H         6.58447398701433   -3.45940131860954    5.45928461615575
C         5.07758699856416   -4.34887538716799    6.68436855845094
H         5.61086818348087   -5.28262360617031    6.76626003011600
C         3.84991555925335   -4.17225836688563    7.30648481656699
H         3.39762113686426   -4.95937124660898    7.88728058299351
C         3.22541529796494   -2.94335917818772    7.14697991883861
H         2.26742878493781   -2.74575566071922    7.60119996834425
C         3.83344171200779   -1.95853469213865    6.39670467086700
H         3.34339046485320   -0.99950832143241    6.26902804851520

