38
CSD_code = MIKXEL | q = 0 | S = 0 | Stoichiometry = C17H14NO5Re | MND = 6
Re       10.59188564146595    6.25595258319698    5.09183034146477
N        11.35205278373215    4.40676872918787    4.32839799729900
O         8.76959882048787    5.18667760941233    5.28854724550218
O         9.09438899791387    8.87938455664828    5.75693057916133
O        13.01251537518186    7.87760806993901    4.06344886392251
O        11.62586460788680    5.86257592040629    7.97124293262831
O         9.60877027767271    6.24087453242258    2.86442665254528
C         9.67348753684287    7.91476180862345    5.54480580930205
C        10.70245435432128    3.29361270869569    4.17438096763737
H        11.24069997711488    2.46406059540668    3.70514676820799
C        12.14355915577494    7.27017911048622    4.50579108298793
C        11.26199480010792    6.05539873561182    6.89991812595969
C         9.64784543298352    7.29215134955335    1.91995272463590
H         9.13266091896526    6.99419498514018    1.00202791822458
H        10.69667962838404    7.48375322998122    1.69697164866605
H         9.19525698760859    8.20734416294184    2.31261424417999
C         9.37240748386317    2.98604474592805    4.55870098735663
C         8.47393020803441    3.95622277502149    5.10659267350969
C         7.15948061262386    3.51908049054796    5.42584659103012
H         6.48531262075649    4.25425155065195    5.84121600695927
C         6.76556633145048    2.22604729380718    5.23103931656565
H         5.76078857172341    1.92511828540136    5.49140137162854
C         7.65124042118432    1.28159514229657    4.69532479632161
H         7.32783887275860    0.26305731837136    4.54503918333658
C         8.92233716568667    1.66328609610160    4.36848016486123
H         9.61628717190155    0.94322601867778    3.95487854700522
C        12.66217680716845    4.42341955270489    3.79738545241165
C        12.88625962875765    4.08951926955371    2.46467494945431
H        12.04838745222609    3.83239941431791    1.83047560351768
C        14.16733799803267    4.12635200956311    1.94510992581712
H        14.32801755724861    3.88072781480530    0.90557973948117
C        15.23618354537503    4.47583108072375    2.75150568078348
H        16.23525223368682    4.50164130622134    2.34381515869806
C        15.01846925660271    4.79600893664095    4.08216575187477
H        15.84912410940322    5.06518230710851    4.71657514980905
C        13.74080966746406    4.77503394152637    4.60683873890210
H        13.56380984787085    5.02290752453753    5.64467405647693
H         8.68526713972812    6.03314843784350    3.07934625187680

