27
CSD_code = MIKYAH | q = 0 | S = 0 | Stoichiometry = C8H8F6IrNO3 | MND = 4
Ir        0.14675010778792    0.63189193127156    2.41294165378594
O        -2.04617241340068    2.43185661135228    1.41680932788412
O        -1.29792855261873   -1.93471681685748    1.81163638502333
O         1.78219534240947   -0.35812954726415    3.04873499742580
N         1.50439657689229    2.23526489724442    2.95316141653777
C        -1.22732715317120    1.71759908271374    1.79453218834649
C        -0.78905840425988   -0.93509100737595    2.01749075150511
C         2.46604730736259    2.32877874003977    1.84179494333004
H         3.25781095334685    3.04980886048094    2.07768532914782
H         1.95045789459945    2.65227316445853    0.93848424013401
H         2.92326131381159    1.35878254275154    1.65548491740456
C         0.96228362002748    3.57481932440090    3.21043631359574
H         1.75643030010658    4.26507318161522    3.51772425869324
H         0.20750114376187    3.53276382857749    3.99468832255035
H         0.49752894775643    3.96147042950166    2.30489788520801
C         2.20304427557733    1.76993637899396    4.16356090023448
H         1.63479837483200    2.08581183708238    5.04211630110965
H         3.20409785219036    2.21568572408586    4.23003059400929
C         2.29714456853182    0.20640704720094    4.15158384849873
C         1.51377196692855   -0.30200930889369    5.39517356913652
C         3.77887149560906   -0.21867378914075    4.30387698843285
F         1.53395626932348   -1.61966964716715    5.53792334467143
F         1.92714365294545    0.23424195248622    6.55523295460365
F         0.21912273702426    0.06208114011916    5.26029678219396
F         3.95069184577732   -1.53292262115934    4.35197234946627
F         4.35037158453526    0.29962406304041    5.40702436031903
F         4.50160839231160    0.23954200044067    3.26960507675371

