30
CSD_code = MILBOY | q = 0 | S = 0 | Stoichiometry = C10H13ClN4NiS | MND = 4
Ni        3.81144583785095    0.15296472495408    4.94345553946045
Cl        3.83790118363408   -0.32393998646332    2.98762588332794
S         4.29648377936990    2.23948543091822    4.59455114028068
N         3.35576055258345   -1.66868999016747    5.59935802393585
N         3.79190743405490    0.58007565764862    6.74516983837223
N         4.03466895941281    1.80114768209640    7.21406891812262
N         4.54976340501858    3.95950429470393    6.62663182780265
C         3.13918690129349   -2.79010414847285    4.92892497324905
C         2.82391311369065   -3.98500509687417    5.55699069741537
C         2.73267733270601   -4.00779869686902    6.94186348186242
C         2.95811243788207   -2.84309972560466    7.64869567183109
C         3.27076560900541   -1.67227984070799    6.95236617515654
C         3.52277763615308   -0.39541359445750    7.57701141796051
C         3.47660064837676   -0.20621580199260    9.05945373986512
C         4.29068897095516    2.69552008263926    6.27676689146125
C         4.82544502685246    4.99977232259436    5.67187604488507
C         4.54114066320817    4.37024081239003    8.00894910790004
H         3.22223050575412   -2.72350050331121    3.85135432371178
H         2.65455909183593   -4.87369539010710    4.97157803568080
H         2.48871596295446   -4.92231266706608    7.46170589477627
H         2.89512757949272   -2.82766148430501    8.72449742356839
H         3.69881523317715    0.83147037933541    9.29066240055231
H         2.48859840090870   -0.45476801394450    9.44485959653765
H         4.20971690573726   -0.84664073504667    9.54820337763036
H         4.81936831666592    4.58979841524654    4.66542316825335
H         4.06749204954584    5.78394603943287    5.74423693487395
H         5.80487538178099    5.43982832254703    5.87453587205139
H         4.34432531254174    3.50593416473140    8.63561239364492
H         5.50888371834114    4.80218659698523    8.27446214163844
H         3.76565204921614    5.12305074916680    8.17150906419146

