81
CSD_code = MILCOB | q = 0 | S = 0 | Stoichiometry = C46H27ClN4O2Ru | MND = 6
C         3.63160433888141    1.50017679404540   -2.95679518390769
C         3.60335891892133    1.19435407974582   -4.36590511236873
C         4.21958738267446    2.28550365584372   -4.97610305687395
H         4.40382787360534    2.44442755594709   -6.01954897543604
C         4.58843768151516    3.18072216615982   -3.94068615123638
C         5.40750006068365    4.31781531159095   -3.96636192239852
C         5.90053287299757    4.89100831273748   -2.77163629494436
C         7.08042958169225    5.68332566971590   -2.58359602607613
H         7.64930846859721    6.14420199649946   -3.36804007673310
C         7.35494873804165    5.68218856660802   -1.24560894559170
H         8.17393531504939    6.16156679767907   -0.74680638319483
C         6.34706116012276    4.88008940710449   -0.61780861517796
C         6.28811873037724    4.31485336420543    0.67969781697839
C         5.50307699868639    3.19292803082901    0.96527521139019
C         5.63333700005470    2.37631128286367    2.13492305586814
H         6.31641954586163    2.56051921491535    2.94081336891024
C         4.76505301833202    1.34359952130399    1.99363705401475
H         4.61676588096824    0.52141207837166    2.66615565981967
C         4.09425789295658    1.51408052097234    0.72865478161586
C         3.11546391235486    0.56982577121185    0.28622841218590
C         2.67119766443962    0.14682354169259   -0.95788212202537
C         1.79909720621359   -0.97742623166044   -1.15063851892899
H         1.27950025125764   -1.47814277931541   -0.35788702620111
C         1.74269172260211   -1.31850392443566   -2.47615559374151
H         1.16913405513530   -2.12015679559683   -2.89883016103653
C         2.53901261241641   -0.40422049251291   -3.19222506419204
C         2.90726578830746   -0.03909111052401   -4.50077539812538
N         4.13773363929037    2.66922398134635   -2.70108414045644
N         5.46692893216528    4.48852665738171   -1.55248919943845
N         4.56116252895254    2.62633117660760    0.13427775907743
N         3.03813673913550    0.50705672964431   -2.25247882042223
C         5.90202901700742    4.85900356129734   -5.23950166359266
C         6.53915661295669    4.06039191649760   -6.18563873854136
H         6.70909128755697    3.01564377669752   -5.97215067861039
C         6.98857628505112    4.60990399000688   -7.37228508865643
H         7.48726942883775    3.98359165192411   -8.09725438580218
C         6.80467177271523    5.95815617095909   -7.63123777353566
H         7.15208629448027    6.38293669920222   -8.56109187002577
C         6.18072647762188    6.76129495737427   -6.69056675481129
H         6.03940151700800    7.81388285373738   -6.88573375703122
C         5.73957656432209    6.21930063537887   -5.49825319998240
H         5.24636689033080    6.84073642176298   -4.76536265281045
C         7.16689831697716    4.83872601837443    1.73697749440293
C         8.55272490631969    4.81683360117733    1.61563149966029
H         9.00595670740681    4.37308869013990    0.74076491117012
C         9.34630613921111    5.32762471882675    2.62682667364639
H        10.42193630539306    5.29945366292393    2.52974969617404
C         8.76588995229825    5.87157258166544    3.76051511573674
H         9.38858521884870    6.27477838246148    4.54540647225880
C         7.38631364677347    5.89539949921643    3.88557922502206
H         6.93060130939029    6.32009021467175    4.76767672767347
C         6.58753128101427    5.37622111652055    2.88387891739076
H         5.51090652919683    5.40340775047607    2.96101277116285
C         2.51845729617650   -0.16243588899279    1.44095528614935
C         1.70968991710109    0.53885293939654    2.32916556596584
H         1.52151283491997    1.58863162722743    2.15821395812886
C         1.14489669456287   -0.10436604800151    3.41557463204496
H         0.51155044534885    0.44672781229176    4.09449480372855
C         1.39465376640102   -1.44870049671494    3.63500335678751
H         0.95697176577596   -1.94951619709845    4.48568179187104
C         2.21266448561726   -2.14880596143343    2.76363808018560
H         2.41791200814742   -3.19520935720439    2.93642455730492
C         2.77083932945676   -1.51096788753341    1.67039072564322
H         3.41768879868849   -2.05299500654520    0.99517824965369
C         2.63786618939040   -0.76702211896904   -5.72010362823760
C         2.40550087621074   -2.14510052243918   -5.70459989182822
H         2.44679159316674   -2.67918917099570   -4.76803449845387
C         2.16037009713231   -2.82926864020498   -6.87834516526764
H         1.98686427753993   -3.89528922288981   -6.85145226553924
C         2.14306585181320   -2.15663149639601   -8.08993863163479
H         1.95090740117559   -2.69447314066773   -9.00626489454590
C         2.37671614238539   -0.79085596818138   -8.11914166639236
H         2.36309880080891   -0.26179793410005   -9.06091772489221
C         2.62408972213454   -0.10153134614696   -6.94912437072982
H         2.78795875300780    0.96436454404860   -6.97242538972877
Ru        3.62506769237383    3.85965351747388   -1.16007946056339
Cl        3.39693022883711    5.41042675306663    0.65029659577932
C         1.93117275665749    3.19659122041052   -0.75390059006647
O         0.87348881841085    2.85123010737647   -0.48767759506564
C         2.88158559873720    5.16434340037339   -2.25888955974279
O         2.46269888500769    6.01396476060206   -2.89598554283309

