93
CSD_code = MILGET | q = 0 | S = 0 | Stoichiometry = C44H40Cl2N2O4Pd | MND = 4
Pd        1.28356204176612    0.84014327201266    5.64868108385851
Cl        3.10171257176124    0.99310973737479    6.97325984189913
Cl        2.37506822901311    1.92535511170714    4.01083161149806
N         0.31241522136608   -0.46398107288539    6.75606076347917
N        -0.57130816070585    1.09379465458391    4.95054461933577
C        -0.94748554625484   -0.60494613876236    6.47951480760367
C        -1.46642469471515    0.37344540390931    5.55872742891399
C        -1.81222218548188   -1.67781737478830    7.06222085248826
H        -1.19598018944039   -2.48423459101039    7.45467681360271
H        -2.48911528270368   -2.07287714141147    6.30779377985519
H        -2.40562527939232   -1.27848816836086    7.88583889680055
C        -2.94140792455103    0.53748366929197    5.36155165046632
H        -3.16415176426439    1.52029232444262    4.95242784728661
H        -3.46883882958310    0.41000301146618    6.30395964915482
H        -3.30385714989785   -0.21311659293702    4.65776780913077
O        -3.26992356020867    1.44131428288389   11.60986987466356
O         2.90344266990889   -3.17242341785018    1.56204189150585
O         0.17605091421415    4.52888443324022   10.10759882154516
O        -0.98840787323940   -2.99969125234354    0.22748363014331
C         1.04924771743875   -1.29936868396528    7.60193514196878
C         0.86454494226877   -1.33272292140230    8.99012383537660
C         1.73593368559166   -2.10101638361539    9.75769581445417
H         1.61303173387875   -2.10623482725285   10.83037038970318
C         2.76412619443496   -2.81448893935362    9.17426160700026
H         3.44418403073018   -3.38291733270868    9.79016792071730
C         2.91707102847145   -2.80661925803744    7.79841578327583
H         3.70152757085711   -3.37921677408582    7.32714049472897
C         2.06148569547551   -2.06112248435972    7.00325385382566
C        -0.21033446297673   -0.57244842766614    9.64389174023542
C        -0.99306459188415   -1.18404502522953   10.62499761700364
H        -0.81077133248532   -2.21726158871119   10.88204492313060
C        -2.00306531514247   -0.49492460038092   11.25751038638329
H        -2.60855493623472   -0.96344360073289   12.01731750189817
C        -2.25907255432399    0.83709952739616   10.92737349431958
C        -1.48856216684499    1.45018399661335    9.94591982244836
H        -1.66320367782791    2.47455953202114    9.66743174886917
C        -0.47380689458142    0.75201699931343    9.31693201286914
H         0.13715178590383    1.25951092888024    8.57751064375277
C         2.16065122974331   -2.17076181621788    5.52458780772567
C         1.29275547124327   -3.03739275664561    4.86536981052959
H         0.47609604048567   -3.49183269048572    5.41116133875290
C         1.49319287093553   -3.38436229007558    3.54122256474172
H         0.81720059411682   -4.08224059885005    3.07224255717356
C         2.56717997856372   -2.84440958257203    2.84032785276811
C         3.38845251422405   -1.90564212513568    3.46868700527961
H         4.19629391901423   -1.46940011889168    2.90296468402763
C         3.20122525556644   -1.58222646592926    4.79751880954507
H         3.90230755458403   -0.92387821982264    5.29384423214186
C         2.22511257595806   -4.23635978165487    0.93314967996684
H         2.73380526854206   -4.38238908833064   -0.01858331152374
H         1.17341014707025   -3.99829441532232    0.74470121030097
H         2.29354007392793   -5.15518144559443    1.52470123567817
C        -3.51147977456792    2.80854883904303   11.37500833962521
H        -4.29671029927959    3.09264961769347   12.07396193883748
H        -3.85855403275461    2.98394957204942   10.35109305008897
H        -2.61887013961807    3.41258000099135   11.56450047459611
C        -0.94423740653179    2.18454339092456    4.13876060499946
C        -0.98522015187665    3.47110294145754    4.69437525807427
C        -1.41041665591801    4.53522813243901    3.90963438909325
H        -1.43578410850841    5.52194949434713    4.34747999725297
C        -1.79244257293412    4.34045935383303    2.59525960070449
H        -2.11631083882867    5.17724466711627    1.99537690381503
C        -1.75799122924881    3.07003464777897    2.05388242057754
H        -2.04790040735120    2.90400647595090    1.02714044889844
C        -1.33803215380144    1.98308053503403    2.81192684388291
C        -0.63642180113263    3.71907722397810    6.11189800904258
C         0.67659531396501    3.61997418432023    6.56929734508488
H         1.48741817914974    3.45018885330581    5.86498776749473
C         0.98736136226229    3.87869175654402    7.89752777974122
H         2.01463290544093    3.78650534401199    8.21258930939685
C        -0.00989315169817    4.27233477849380    8.78340717706471
C        -1.31510871165129    4.43280512663778    8.30987311515388
H        -2.07102487229900    4.79394227887640    8.99168673928978
C        -1.62376574831457    4.14449241723450    6.99770832234189
H        -2.64022553200038    4.26001945633652    6.64771391080432
C        -1.29318463925699    0.64694499221982    2.19517224480319
C        -2.41475000962146    0.11979060524033    1.56888249353245
H        -3.34599280080738    0.66879547280875    1.59322922782338
C        -2.36693581417552   -1.10303456762121    0.92041443501782
H        -3.26281031945357   -1.48740553105612    0.45774154553679
C        -1.16594277235194   -1.79809908693126    0.85557561394716
C        -0.03403985414239   -1.26043811724142    1.46904533588286
H         0.90285059239284   -1.77587147937262    1.37300156906183
C        -0.09981815312171   -0.07076267193633    2.15653181450748
H         0.79008644867452    0.32830290494458    2.62741935467795
C        -2.06618035430457   -3.54912172349772   -0.48969595109511
H        -1.68461411840432   -4.46209925098736   -0.94478764605109
H        -2.41199524412064   -2.87113406251524   -1.27618081792609
H        -2.90418158033461   -3.79847166537490    0.17000757863236
C         1.45951404234450    4.31942314117574   10.65092552634357
H         1.36414056246905    4.52105348435319   11.71681328474478
H         2.19433660357459    5.00458268407599   10.21757138365458
H         1.79130408460777    3.28721689253142   10.50330137858606

