67
CSD_code = MILJOG | q = 0 | S = 0 | Stoichiometry = C25H38AuOPS | MND = 2
Au        2.37069208162678    5.33072715532288    5.53291716499296
S         3.26981193193513    5.59016405179827    3.35555888410423
P         1.49639166036054    5.09354168893286    7.60778930339537
O         2.57665687331817    3.21909138495909    4.02907840752079
C         3.06932087206686    3.89528751980235    3.12638435262549
C         3.50587424532475    3.31192669933038    1.84673510234476
C         3.39545142112815    1.93206966549407    1.67703867084936
C         3.79931842106802    1.34146095603170    0.49606118265767
C         4.31546087783118    2.12087118368097   -0.52710473079390
C         4.42601621093450    3.49286851156578   -0.36502225702653
C         4.02468045222833    4.08885439134440    0.81506291250276
C         1.77879344804113    6.60422474319764    8.64270199900852
C         3.27142152690781    6.93934232265901    8.63967135570499
C         3.50609354553468    8.28420953982698    9.32147040851936
C         2.96271036294822    8.25937862982658   10.74761903677301
C         1.47791856441312    7.90697974783442   10.75040270917233
C         1.24449120801977    6.55780357639289   10.07212512009813
C        -0.33927813518377    4.85997351076441    7.52901923881527
C        -0.99491233546162    6.14379767826071    7.01739920187059
C        -2.48924970829651    5.93821399171254    6.78064109538904
C        -2.73138491020379    4.79801134924125    5.79856375503110
C        -2.10322196249795    3.51432950396266    6.32831345685760
C        -0.60765686343242    3.71114029846944    6.55260511817033
C         2.18795873531390    3.68586971523351    8.60905470108267
C         2.81705235940915    2.66239375172842    7.65962902897882
C         3.53811402268228    1.57560313101743    8.45072238193435
C         2.58237504012351    0.89678739952887    9.42732238266994
C         1.96335992586335    1.92656506323843   10.36734939557295
C         1.21867521238248    2.99670768432582    9.57043704406000
H         2.99118942520886    1.34239044913119    2.48671678397322
H         3.71311337757963    0.27161040835160    0.37051181470891
H         4.63195904202022    1.65863159654022   -1.45118078164198
H         4.82806604953417    4.09985439644548   -1.16320521247181
H         4.10837357332888    5.15632071247003    0.95006684299275
H         1.26422959509539    7.40471943686504    8.09251285231827
H        -0.73605567025450    4.61130108484217    8.52070127435212
H         3.00023325835645    4.13527122177344    9.19897968137797
H         3.83277828540722    6.16730168837304    9.17193639298368
H         3.63680441723825    6.96733652698235    7.60817456656610
H         4.57366636281160    8.51064222942214    9.33261508841506
H         3.00338538495206    9.07021486937150    8.75366020000278
H         3.51184398766074    7.51727544226475   11.33206154077360
H         3.11285272036357    9.23220608664683   11.21895098442474
H         1.10518103963189    7.87164070061233   11.77618407487285
H         0.92047486136778    8.68149677726640   10.21837460810508
H         0.17736353163969    6.32319996477765   10.07507361856495
H         1.76768449915993    5.78315872341569   10.63663712059661
H        -0.85899204709955    6.95400586524292    7.73716277200140
H        -0.51143197649068    6.43710767638786    6.07953323753447
H        -2.97643806465950    5.70663601832530    7.73163050619774
H        -2.92646363949155    6.86246716366810    6.39799369825352
H        -3.80329717825885    4.65723061613241    5.64765774435529
H        -2.28500692130359    5.04791418266299    4.83393605960311
H        -2.58199161828584    3.23684103960809    7.27150052348998
H        -2.26069588076348    2.69935657829766    5.61973868160355
H        -0.12155845532949    3.93822937905215    5.59845229517885
H        -0.16846414595067    2.78385057177053    6.92563476475152
H         2.04767286183659    2.21146430995334    7.03000586683259
H         3.52007067482860    3.16587543152105    6.99057079766686
H         3.95536210957716    0.83906355485555    7.76246435784769
H         4.36730072613196    2.02102497245186    9.00671587007615
H         1.78976491313002    0.39400250564071    8.86865078797798
H         3.11572284465916    0.13976641875033   10.00533288262483
H         1.27146930286806    1.43670635004040   11.05585380163711
H         2.75098414006067    2.39504330267062   10.96292395987174
H         0.77147403423484    3.71996410219284   10.25552018029612
H         0.41423949478718    2.51628279976228    9.01130333842665

