81
CSD_code = MILJAT | q = 0 | S = 0 | Stoichiometry = C26H38Br2N4NiO6P2S2 | MND = 4
Br        2.92415283268639   -7.78243234131025   -4.23933917804874
Ni       -0.00014053483009   -0.00028789460528    0.00002412414805
S         1.30020046814928   -1.82534055820639   -0.37963798566675
P        -1.89980267575510   -0.43149646380519   -2.45800297151782
O        -2.98017214142223   -0.45434686289482   -1.27297456134274
O        -2.17373735785640   -1.41948087646239   -3.52208853617959
O        -1.87020680637700    1.07621138545626   -2.89657406823756
N        -0.43238708231400   -0.60451689097851   -1.69943121398583
N         0.21147790948417   -2.56448343658776   -2.78390420533499
H        -0.56998842917104   -2.34226627876173   -3.40792717470845
C         2.62035322554088   -5.37616897118883   -2.73757689510302
H         3.50544275979471   -5.70687529079615   -2.21672832800470
C         0.35536617779950   -4.53760819940086   -4.09170243725316
H        -0.52727721369809   -4.20307304661816   -4.61644273738862
C         2.08846353647839   -6.14086138744146   -3.76074965830276
C         0.30551698977194   -1.70508520965931   -1.76021717030308
C        -3.16478667524817   -1.66570072164621   -0.53697765117702
H        -2.66297094771942   -2.48618047918062   -1.07118820681556
C         0.87329536803225   -3.75509451028532   -3.05645309214138
C         0.95657337085808   -5.72750807278950   -4.44487533871566
H         0.55176911386955   -6.32980132517484   -5.24329579279619
C        -2.84180702346583    1.55210878100916   -3.83652012689788
H        -3.09374665115900    0.72442370948281   -4.51248554635196
C        -4.66061706884665   -1.94755265581719   -0.47065301403629
H        -5.16810794706105   -1.11577339355574    0.01101285492680
H        -4.84523468773545   -2.85746230176294    0.09338833916740
H        -5.05726771667764   -2.06498319343725   -1.47557221016471
C        -2.55909095821249   -1.50355891494327    0.85551869393861
H        -1.47042984558795   -1.26019523271378    0.79461930597902
H        -2.66668925212761   -2.42512954380766    1.42171925276166
H        -3.06591877377923   -0.69407273219086    1.37782172873973
C         2.01682098364770   -4.18352269860549   -2.38537855446780
H         2.43507713004469   -3.58890371004962   -1.59150861483585
C        -4.08692284111576    2.00668142263218   -3.09056892138469
H        -4.50811962265780    1.17086054139313   -2.53834133042171
H        -4.82603561383852    2.38608651167804   -3.79133231444848
H        -3.82153500016773    2.78888025685470   -2.38360189276230
C        -2.19063906361482    2.68649172327862   -4.61428546236701
H        -2.88695674461316    3.07884378961211   -5.34997414094628
H        -1.29958860958847    2.32862226213211   -5.12293684173177
H        -1.90576654472370    3.48038449291758   -3.92896483993566
Br       -2.92282542069080    7.78314908865233    4.23793730983654
S        -1.30052292683790    1.82473425737774    0.37967128907189
P         1.89966583355158    0.43108224785751    2.45791026310466
O         2.97984746526073    0.45395280199823    1.27272270764885
O         2.17361686776652    1.41911818604571    3.52194424422810
O         1.87032705575204   -1.07660614144361    2.89655931491014
N         0.43213800888754    0.60398623565392    1.69947552873247
N        -0.21147577132391    2.56419299290164    2.78367441679074
H         0.57002061989543    2.34201761116927    3.40767308837104
C        -2.61981303437016    5.37633533438178    2.73690512110639
H        -3.50480196709115    5.70716934615875    2.21596776873096
C        -0.35478468919224    4.53771740664515    4.09091580534242
H         0.52780314290451    4.20309738243003    4.61569739904404
C        -2.08756165631493    6.14125908458302    3.75971717865950
C        -0.30568157230176    1.70461648230598    1.76015177755721
C         3.16431777625463    1.66528219047285    0.53665318813298
H         2.66246535617555    2.48575481100000    1.07084488485678
C        -0.87303558592387    3.75500068493085    3.05598230184219
C        -0.95563563716434    5.72789119703535    4.44377295471772
H        -0.55068984796590    6.33023237050326    5.24208431846979
C         2.84103711198060   -1.55184316011427    3.83775608660634
H         3.09089742953281   -0.72421279882275    4.51455987100235
C         4.66012224342801    1.94724948767040    0.47022210045975
H         5.16765626393177    1.11543834558827   -0.01134268730963
H         4.84463632961959    2.85709064440886   -0.09396315276040
H         5.05681293437756    2.06486604683487    1.47510412393737
C         2.55855708998829    1.50300804536451   -0.85579888607509
H         1.46989612589279    1.25967186775771   -0.79482203201763
H         2.66613768602849    2.42451893021870   -1.42209939345838
H         3.06535249063967    0.69346367371816   -1.37804419236623
C        -2.01656792156231    4.18347147735138    2.38494924118777
H        -2.43501731521852    3.58875275887401    1.59125476931524
C         4.08791724329124   -2.00444081810760    3.09355474971027
H         4.50897460152987   -1.16774632327283    2.54253939359478
H         4.82636153209136   -2.38335304987949    3.79528911987280
H         3.82465087186701   -2.78653575636836    2.38567954748409
C         2.19003334223501   -2.68747598047113    4.61381257943754
H         2.88562915106341   -3.07937052081923    5.35042290201802
H         1.29769230722555   -2.33103044060358    5.12119415533533
H         1.90728042799085   -3.48133768175497    3.92757755698450

