82
CSD_code = MILMIF | q = 0 | S = 0 | Stoichiometry = C35H42P2S2Zr | MND = 13
C         6.18118632467638    7.04451169090137    7.55472759314885
H         6.19239618831691    6.06863021383724    7.05685147540803
C         5.78233183447039    8.11105124606764    6.54240910134233
H         5.67072084814687    9.06112833477918    7.07405851705285
H         4.81743841298018    7.84370257635466    6.10114148327230
C         6.83916071251869    8.26483935799524    5.45452697535061
H         6.92619964966115    7.33016114881609    4.89531968681637
H         6.53600225602405    9.04627926183379    4.75466870541343
C         8.18712257198388    8.61263587681554    6.07797102724780
H         8.11077855981731    9.56768749937825    6.60316995992173
H         8.94544831673667    8.71544501582504    5.29923257574722
C         8.60107733801427    7.52787936307462    7.06611034550412
H         9.56022891736245    7.78320981692655    7.52227744932744
H         8.72413989462865    6.58117467220840    6.53369635820177
C         7.54648593168449    7.35874111366139    8.15700709558413
H         7.85546063468583    6.55999379723469    8.83581265039608
H         7.46771999114005    8.28629663372377    8.73441392583118
C         5.42125400826869    5.55256001477750    9.95300263331566
H         6.39731072929327    5.81170355629372   10.37957758295825
C         4.41463309705463    5.38976900371193   11.08195933979164
H         4.35577301946882    6.32605785954637   11.64700440152735
H         3.43324038819873    5.18389722445556   10.64471808088880
C         4.80478986012033    4.23949514467723   12.00277049713913
H         5.77133372143908    4.45611547674497   12.46506146361168
H         4.06709051409011    4.14003251766660   12.80167025396833
C         4.89323585414455    2.94400352034248   11.20232248817471
H         5.19095167394143    2.12005338339022   11.85376844897597
H         3.91063888755720    2.70748998824387   10.78837511793555
C         5.89755039725998    3.09608241638552   10.06482985311307
H         5.94149526440702    2.17479112804222    9.48052266765620
H         6.89150824160549    3.27463422478554   10.48395025183441
C         4.58287945856300    8.57037796514727    9.58300889500788
C         5.52274528519048    4.26064463394674    9.14933093720345
H         6.27677885865891    4.35115448367916    8.36571473235801
H         4.55864935424180    4.06615046935921    8.67184714836524
C         5.89641181071912    8.32669703400626   12.36588726612242
C         5.12751942631592    8.14702471460608   13.50852163793823
H         4.19869867113087    8.69524243574430   13.60791644180619
C         5.56746919259106    7.29858043851901   14.50863887130297
H         4.97294170130615    7.16287521773194   15.40012000809836
C         6.77052636681603    6.62614288363830   14.36750422905228
H         7.11255561583911    5.96267177047505   15.14800743546095
C         7.54055718673789    6.80716018325327   13.22827042237486
H         8.48266944060477    6.28780431915018   13.12408545944027
C         7.10492102972374    7.65237080996455   12.22558257242441
H         7.69968196758898    7.80837934562812   11.33451410058905
C         6.68940190514015   10.41536802144640   10.58258334844096
C         6.71971495626727   10.95345079391382    9.30215291074340
H         5.93991024118053   10.66373935256377    8.60535462103802
C         7.72322462730858   11.83033394386901    8.93818085172032
H         7.74743656094430   12.24454660234620    7.94036850419622
C         8.69659844863783   12.18039538236174    9.86098999083006
H         9.48478574460660   12.86345667612833    9.58044124481259
C         8.65455522549822   11.66405123031607   11.14598848373597
H         9.40648826939392   11.94975118324896   11.86723182583664
C         7.65059368383293   10.78560502268221   11.51334616807575
H         7.60889740772003   10.38954291298762   12.51859256411342
C         0.67358149777629   10.19305959534783    8.31906121556919
H        -0.40206188448609   10.09539124286260    8.38514516141851
C         1.46449067343325   11.13250351115197    9.01364504704038
H         1.11181275145574   11.86518756398375    9.73100125945571
C         2.77465704441467   11.06996957618909    8.48681737837135
H         3.58274339555003   11.75048643611028    8.73077897174668
C         2.79375188470099   10.07248791438665    7.48761012252020
H         3.60782241621097    9.86730530637018    6.80633666691671
C         1.49651756608575    9.51869169056618    7.39696063491214
H         1.17124431003904    8.79514734253648    6.65852869324807
C         0.13189914061549    8.93871983841762   10.93662933094221
H        -0.61622231458593    9.71860797682230   10.88275883476860
C         1.12760841402717    8.84212202791454   11.92089710547974
H         1.28132893299864    9.53897237101042   12.73512596588887
C         1.79928992085489    7.60851667486863   11.75014684954819
H         2.49495292614205    7.17392202557500   12.45758618437010
C         1.19575828373392    6.93981343496367   10.65661704102897
H         1.36435171119481    5.91392531274933   10.35438796529671
C         0.17892736121398    7.77200573978670   10.14420074266263
H        -0.52320316574199    7.49269083649712    9.36718287953187
P         4.86851418723920    7.00868017593846    8.89324946922403
P         5.25999695616090    9.33469400750634   10.97356044942982
S         3.08607852127560    6.61556054618571    8.06617197046793
S         3.78152803697390   10.54107900141042   11.57915972967006
Zr        2.41791495648005    8.89278894563766    9.69033165293571

