79
CSD_code = MILWOT | q = 0 | S = 0 | Stoichiometry = C34H40Cl2P2Pd | MND = 4
Pd        5.86748885197462   12.67764714689346   19.93556601951978
Cl        3.97154214280334   12.45446080005262   18.71859284655954
Cl        5.27431332724299   11.17548108720356   21.52682042812071
P         6.12203575690621   14.46125797697480   18.61086123930875
P         7.82467401665205   12.60851401281788   21.02000291205849
C         9.29390829831267   13.62062820727035   20.49798952907832
H         9.20428737909853   14.62999081508582   20.90300884963396
H        10.14314284138096   13.15098247736071   21.00565582480804
C         9.55781936890185   13.61886093363043   18.98658585153736
H         9.25755852674436   12.63994474498030   18.59805809879444
C        11.09864774479347   13.76056176775592   18.79803963854616
H        11.62273708120059   12.93906876182037   19.29014494654014
C        11.41435076026029   13.83037473415787   17.33311791662726
C        12.23103382571137   12.96637270401408   16.63074220959035
H        12.70363733499817   12.13286191641916   17.13013133084177
C        12.43927589461593   13.18392491182768   15.27663737826791
H        13.07806055718287   12.51524618221974   14.71910204676718
C        11.83572479653306   14.25255120466457   14.63653689779722
H        12.00609978166516   14.41313644091297   13.58239015405513
C        11.01189569659105   15.11919863395076   15.34002927713895
H        10.53876795112763   15.95218287766063   14.84015303640519
C        10.80836152300838   14.90598596354475   16.68837089834325
C         9.92836286684503   15.71222003793414   17.60127308921855
H         9.45540666693052   16.54857020368489   17.08340564159770
C        11.44175395463323   15.10178278386265   19.38327657355437
C        12.27857820114438   15.34419130771110   20.45432163879161
H        12.79316183408038   14.52855869899923   20.94192629938984
C        12.45401002825647   16.64805560014538   20.89410397103074
H        13.11112075461457   16.84846953838782   21.72731385918266
C        11.79118535978408   17.69277996963655   20.27307523529401
H        11.93279995949058   18.70374293335373   20.62546209237987
C        10.94882394107953   17.45072124106748   19.19797399876768
H        10.43400393558688   18.26682051598772   18.71147165029658
C        10.77891409686761   16.15414601838962   18.75377253251391
C         8.85973161042133   14.70822111236924   18.12538525082583
H         8.46536181040677   14.20596164800005   17.23363189642112
C         7.68485979147500   15.45450727660958   18.75781750010007
H         7.51220229340984   16.39370569904615   18.22348901482112
H         7.85170822219886   15.69543394704982   19.80852705186003
C         5.54491076105514   14.79371838969432   16.93151667123785
C         4.51506041279133   15.66534270863818   16.97795173770468
C         4.12011540477585   16.09543016012399   18.32711462133316
C         4.88191271495074   15.57704249056025   19.31029782996636
C         6.12611496284957   14.11249151085882   15.73372258950828
H         5.34514609990143   13.84265761485761   15.02528485425518
H         6.62999455213878   13.19620652034993   16.04081234839642
H         6.84748951119035   14.75272776675024   15.22152714166182
C         3.76993100052705   16.16664650326834   15.78587018839607
H         4.21010715257441   15.79895877742839   14.86416551872725
H         3.77672059008292   17.25566014910714   15.76322696990220
H         2.73253120205497   15.83828126699221   15.83308577034189
C         2.94283482364528   16.99488905222478   18.50887999435824
H         2.80256357046595   17.25400149766919   19.55390783240661
H         2.04124636960129   16.49900214349200   18.15204768185701
H         3.07097743010784   17.91389761892465   17.93838276679603
C         4.73453170088503   15.63845718081541   20.79853367943658
H         3.85576376364257   16.20210290960094   21.10187935162310
H         5.61671464452870   16.09207432891893   21.25709925157878
H         4.63594259932516   14.60576938640080   21.19025339263772
C         8.36463171744395   10.90198341923941   20.76057561946287
C         8.70592475492294   10.34644153213141   21.94214310818647
C         8.59958338625478   11.25489335817824   23.08884767340992
C         8.12840528213018   12.48468337695044   22.79428321915368
C         8.16048619105537   10.23810535860932   19.43185245826850
H         7.84871635523182    9.20274940461848   19.55982732086271
H         9.06814908049505   10.25048324455206   18.82441614825299
H         7.35814013964753   10.76837309615956   18.88256027129828
C         9.11756032193467    8.92588742501798   22.14234658503532
H         9.22330542947820    8.41157555401907   21.19190243863016
H         8.36854843479363    8.40633160107548   22.73878648879648
H        10.06676745100096    8.87329239619882   22.67368540090027
C         8.95274430660017   10.78834593920688   24.46161432848204
H         8.83313968632851   11.58768788095365   25.18661425689596
H         9.98285369337981   10.43496794226899   24.49431548889035
H         8.30470369047391    9.96107118772517   24.74720910579334
C         7.86077237939914   13.62513684353920   23.72241142475635
H         7.07515041049231   13.36213127684028   24.43072657059187
H         7.52520437264225   14.49252631312612   23.15358433175951
H         8.75285486427214   13.89905203944667   24.28677294206132

