48
CSD_code = MILXUD | q = 0 | S = 0 | Stoichiometry = C19H23CdCl2N3 | MND = 5
Cd        7.68073852019978    8.46601315997929    5.00710412710184
Cl        6.90870314350351    6.48145590462262    6.09070058351250
Cl        9.33330187947914    8.18144482055221    3.35615399587000
N         9.20897346864128    8.73784417906774    6.80095456717210
N         5.43081716297643    9.10944224546621    4.31372651641413
N         6.74413937308804    9.78516111080812    6.78363589911727
C         4.71004910810860    9.24306911741628    5.57853741429858
H         4.67755861555772    8.25216939171606    6.04048269285990
H         3.67772549079791    9.59069863796798    5.40826293440472
C        10.44720966649975    8.28037403089830    6.79392031238251
H        10.93491427487204    8.25360754907128    5.82619151282098
C         5.38381870060670   10.19143278105738    6.58255979708750
H         5.40158096700237   11.21308419215363    6.19095463750787
H         4.79415918630298   10.17655701358422    7.50933135625881
C         6.29031996262375    9.04860222092439    9.07567259268402
C         8.53128527707296    8.78479829028391    7.95023420680814
C        11.09221318525903    7.84740338880075    7.94634027327010
H        12.10156850395255    7.47084830239230    7.89778574690329
C         7.13642957820020    9.26203622918711    7.87505091418760
C         5.34460216591385   10.32628780320811    3.50488380588824
H         5.73218463630169   11.16849669654119    4.08301331169108
H         4.28995825904361   10.53284315396471    3.25063643167641
C         5.72270231446761    7.79286499449317    9.27182363976090
H         5.90878791213243    7.01419069401373    8.54599965995654
C         4.86390881286578    7.99034188718389    3.55190467227387
H         3.80701840558770    8.19984075752680    3.31314616502537
H         4.90916391822763    7.09264377450609    4.17499503932005
C         6.05787741815905   10.06915820633056    9.99065212475882
H         6.50196316058584   11.04208659681273    9.83271589224180
C        10.40316867629303    7.90033029062382    9.14670088020498
H        10.86618915873423    7.56853576357192   10.06435339830476
C         9.10216705503890    8.37727644948049    9.15411392320576
H         8.53458564494684    8.42719383126450   10.07065670096650
C         6.15996208349165   10.17861973540964    2.22409481879141
H         6.10765102471269   11.10780111413885    1.65364387545047
H         7.20702391412560    9.99322515997568    2.48449942959403
C         5.64342444404670    7.75446653152530    2.26289884203163
H         5.19905539674473    6.91437960437861    1.72649805374077
H         6.67771643602180    7.49088721918181    2.51120890809490
C         5.26563159146535    9.83175376208632   11.10075788344583
H         5.08940677696510   10.62510504556056   11.81213772719264
C         4.92884131945606    7.56676870951343   10.38194879417576
H         4.48804570837829    6.59319937688633   10.53321440823054
C         4.70157314502926    8.58237724641637   11.29706898911004
H         4.08394744745117    8.40105676410268   12.16406471711552
C         5.63212312671090    9.01055694075260    1.39917585358029
H         4.61145079120868    9.22274747118932    1.06734614941877
H         6.25236319117341    8.86472185342513    0.51474582408329

