51
CSD_code = MILXIO | q = 0 | S = 0 | Stoichiometry = C26H8F6MoN2O8 | MND = 6
Mo       -0.20768236252006   23.39281147263000    0.00203727317572
C        -1.26384858177094   21.97534775140738   -0.95327154609397
N        -1.88225260053835   21.15091994382476   -1.51452820191606
C        -2.57995439276321   20.21213648003275   -2.18760156825183
C        -1.97979192179272   19.54081978353435   -3.26496075593157
H        -0.96316040120939   19.77944346186434   -3.53505733188926
C        -2.68719266582854   18.59403028128230   -3.96084115821197
H        -2.21495979849970   18.08656324839929   -4.78594765453447
C        -4.00979213783793   18.28487608449857   -3.60933867939462
C        -4.59973073645710   18.96125741628135   -2.52135117646413
C        -3.88747026750455   19.92128082721153   -1.81423204077616
H        -4.35727567259727   20.42765384335138   -0.98647221909365
C        -4.83629309354923   17.31696319223299   -4.27913688144957
C        -6.09888769335012   17.08335052494979   -3.86587385674988
H        -6.74459240892463   16.36548869262212   -4.34628407502133
C        -6.67421688274398   17.79918364542010   -2.72955507197418
O        -7.78473632814014   17.64135763037633   -2.30608862198982
O        -5.86289077132151   18.71810768499025   -2.12016046315317
C        -4.27417713652019   16.56241404471810   -5.46111948825550
F        -5.15057886799941   15.70726630608793   -5.99124052977328
F        -3.18772347703796   15.84418540312608   -5.13108915233401
F        -3.89689295030339   17.38856356328217   -6.45189546410772
C         1.13029774798022   23.38227580877156   -1.44759514468548
O         1.92195854173430   23.37527859702105   -2.26718996550291
C        -1.53797543646351   23.40523309663984    1.46156715381706
O        -2.28991516598049   23.41173602625832    2.31646867169248
C         0.82548762773435   22.00271111500779    0.94831437716008
O         1.43379264824467   21.21216651591252    1.49744974056318
C        -1.24704448817710   24.82054663873212   -0.95644893399523
N        -1.86031930806262   25.64768888041642   -1.51928971258852
C        -2.56297293103279   26.58437263967834   -2.19010765248806
C        -1.96806343643035   27.26053367864579   -3.26726633997369
H        -0.95026145293310   27.02861306886137   -3.53875712765446
C        -2.68229945881617   28.20327719963266   -3.96177239326786
H        -2.21426064254242   28.71425857329477   -4.78710539547493
C        -4.00660154332843   28.50349788932429   -3.60893214515783
C        -4.59083174191798   27.82314449674054   -2.52032429779971
C        -3.87168646191781   26.86730077020660   -1.81463865062593
H        -4.33721077118911   26.35735897973869   -0.98664484684059
O        -5.85509841357382   28.05781352283558   -2.11759759149882
C        -6.67371932731516   28.97034467819239   -2.72683819532850
C        -6.10447233471631   29.69005778019221   -3.86375227913490
C        -4.84064653458722   29.46530508710091   -4.27819197269252
C        -4.28556727595559   30.22261888307660   -5.46173468328053
F        -5.16859953830969   31.07133077896387   -5.99116133727306
F        -3.20334340818160   30.94837477015233   -5.13447039432563
F        -3.90459144969948   29.39787902933105   -6.45232350605779
H        -6.75580533977005   30.40300513751209   -4.34388403230527
O        -7.78512778210187   29.11993176168151   -2.30272262396384
C         0.84753529605232   24.76845223537373    0.94523890183061
O         1.47004353047865   25.54837107860283    1.49361904104464

