43
CSD_code = MILYEN | q = 0 | S = 0 | Stoichiometry = C12H24Br3O3V | MND = 6
Br        6.03644054994519    7.87739658392768    1.69756905118504
Br        4.34205793441207   10.43764501740762    3.56614383066053
V         4.34170211340923    8.15665676182807    3.56746834659603
O         5.89584786179442    8.16766635841212    5.02922884256253
C         5.67338626363785    8.66341974090250    6.35798935229632
H         5.24420822301530    7.84862920771670    6.95280801802937
H         4.95455117242352    9.48953202197896    6.32413585357901
C         7.02793292391174    9.11860710338303    6.90518018218979
H         7.14784103510694   10.19388022857870    6.77022842108700
H         7.13791642180587    8.88344604936760    7.96105562623403
C         8.01272704752857    8.36659833370305    6.01485692738122
H         8.98387454628926    8.84903376194354    5.94436621321142
H         8.14847227584595    7.34240654108988    6.36814674303474
C         7.26640797868194    8.37606502491920    4.68862982743650
H         7.37480501942733    9.34889880164716    4.18621709523788
H         7.57940744295100    7.58349611719175    4.00542833603384
O         4.34114429308158    6.13454862789389    3.56683691584006
C         3.98298343863212    5.31759033976807    2.45856105275035
H         4.78806491459054    5.37054268804478    1.71052699293284
H         3.05873032680568    5.70495019708723    2.01494902430248
C         3.82940762260078    3.90048857818618    3.00253175902548
H         4.02167606187303    3.14734773424006    2.24267587272917
H         2.82691380388411    3.75264034697066    3.40746916029385
C         4.69924601545432    5.31703445778514    4.67461904483152
H         3.89206698160492    5.36547603381528    5.42074072532848
H         5.62086370022280    5.70698389133869    5.12136577358967
C         4.85932997802645    3.90169163139332    4.12808992393311
H         4.67044511459114    3.14619422178524    4.88645357902747
H         5.86251227696472    3.75926726507291    3.72288284524674
Br        2.64897331312992    7.87649966161790    5.43849013556894
O         2.78662128974658    8.16726436489449    2.10517604117853
C         3.00990507905523    8.66026748335491    0.77558590543647
H         3.43853036800428    7.84391584971054    0.18255193086861
H         3.72946372519992    9.48582111496128    0.80799453948252
C         1.65596116730269    9.11592892519562    0.22707406613780
H         1.53836262261582   10.19200089169462    0.35746986467998
H         1.54508367961846    8.87655706173047   -0.82775824604622
C         0.66971930760482    8.36976271257641    1.12072528063420
H        -0.29996595765209    8.85524402203451    1.19035423797066
H         0.53073029898743    7.34476811579321    0.77106843283709
C         1.41712063338244    8.38145556780425    2.44629784755165
H         1.31237254556947    9.35634665478841    2.94550662645688
H         1.10215858895169    7.59223390642473    3.13240800065644

