63
CSD_code = MIMCOB | q = 1 | S = 0 | Stoichiometry = C22H8AgF24N8(1+) | MND = 4
C         7.06483375049253   16.74633952324625   16.68322643657967
H         6.13591377402276   16.19339298364835   16.47937714183572
H         7.55920987083370   16.33326556817517   17.56743562526704
C         8.47725228881495   17.54171091982986   12.13613762259811
C         8.54369480382478   16.98140651090133   13.52144250301972
C         9.51570935202695   16.13824336078781   14.07451352293566
H        10.38811848736363   15.73310020458663   13.60345276397390
C         9.08511413070120   15.94202519555189   15.37162528307429
C         9.66163675468790   15.05907809871154   16.44070155961413
C         8.56541418211221   18.80998184300266   18.42282067701580
C         7.29322815177230   19.06756542830529   17.66995292874707
C         6.57346922640509   20.23476306506428   17.52901577047366
H         6.75656770746284   21.18010080577101   17.99858523975103
C         5.55323809295344   19.89282310867711   16.62982764075216
C         4.48168232288823   20.76519469072234   16.06084191093803
C         5.07351710141541   15.42469097835027   12.62344842597070
C         4.53703679581275   16.53382894851249   11.77786730331991
C         4.48520929826512   16.62147247579029   10.37927069829459
H         4.79688973477761   15.89546528711852    9.65576404003134
C         3.93926404959418   17.86582985835286   10.14724200206371
C         3.71685037121933   18.58989142978681    8.85189904043514
C         7.35574949453332   21.41834473499028   13.29656175654353
C         6.05841085802129   21.44244323063771   12.55281342813107
C         5.51071550614282   22.47848646603741   11.78595284619689
H         5.91657306140802   23.45199656040359   11.59965986953146
C         4.31691455908721   21.95673528509397   11.32853057917700
C         3.23617172339281   22.61952090826662   10.52384611363340
C         3.14011479788103   19.73113957487635   11.66214798290911
H         2.44782403450898   20.05596759907223   10.87978486542529
H         2.60706492256999   19.63548768890370   12.61967863238901
Ag        5.51751864297589   18.42025867586806   13.95856321392193
F         7.24050497667623   18.05529175728871   11.88503311241270
F         9.33853714666477   18.53496283597907   11.94527713779156
F         8.69845267777405   16.62615185420492   11.20109463126136
F         9.54066555689561   18.47235697479528   17.55802107320648
F         8.43870799072380   17.78537177289247   19.27440613814973
F         8.96217476613543   19.87202460057909   19.09928751026436
F         8.77921826741749   14.10096233431156   16.77507878409454
F         9.91788473664028   15.73507284236332   17.56704907033047
F        10.77641273512167   14.47488384568352   16.04060825621287
F         3.70661964737702   20.08104038369071   15.18880935541424
F         4.99828048661654   21.77854725365325   15.34678572335030
F         3.68253506119481   21.28931879805771   16.97529518825170
F         8.39874114670038   21.22569830522832   12.49562548039975
F         7.37475321196719   20.39469881574065   14.19578252940865
F         7.57265382024951   22.52925472686571   13.98824049418461
F         6.38311188804174   15.22502771990137   12.40285112800845
F         4.45763321596733   14.26918955850616   12.43611311836220
F         4.98167698541899   15.72535110533780   13.93877930773075
F         4.47538852077233   19.70183688829592    8.82055036859495
F         4.03275621917644   17.84420953463855    7.80923998830790
F         2.44670959205832   18.99057702636978    8.71987760311979
F         2.94170725399569   21.93066292749281    9.41468918649338
F         2.09797000709859   22.67870979957633   11.23757778774813
F         3.57216741513103   23.84846728980291   10.17625040682763
N         7.60377249973809   17.26334518006351   14.41168651700483
N         7.93481328770546   16.64029945419395   15.52907531505202
N         5.65177427249535   18.62228645325152   16.26148816421678
N         6.69723538515464   18.12066929922446   16.89923125440276
N         5.25662597186610   20.38765820502878   12.55983593359667
N         4.20915561730913   20.69743273795858   11.81634856894844
N         4.05952465789004   17.63632710528661   12.34024664991750
N         3.68762713426390   18.43666160567972   11.35417679303199

