78
CSD_code = MIMCAO | q = 0 | S = 0 | Stoichiometry = C30H42N4OZn | MND = 4
C         5.87225017856141    3.75537736985917    0.09798479780507
H         4.94008326619836    4.20698293871771   -0.27435277922821
C         6.93911252907062    4.82780145934847    0.11961615708578
C         8.31222144982811    4.51053269790350    0.26638972504430
C         9.21173753790103    5.60268672258485    0.26956645193042
H        10.26100842788198    5.37116141092571    0.37602573522216
C         8.78407676013588    6.90083766100381    0.15334305887889
H         9.50489281139316    7.70662604040953    0.16512654633109
C         7.43062464589488    7.19036655682434    0.02133663384524
H         7.09064982483593    8.21061255686571   -0.06961254752232
C         6.52680284685221    6.14970126080312    0.00391032909660
H         5.46934035757355    6.36229188190915   -0.10279908198364
C         5.91508017059828    2.47911572394833    3.37811363772146
C         4.58125362663041    2.92019193154170    3.35265027959186
C         4.40550694762217    3.41899368758594    2.08126626323908
H         3.55087920778836    3.86422860300956    1.61267383287852
C         3.62424145232768    2.76814053914132    4.49000923724621
H         2.94333282616726    1.93886263254364    4.25403028920717
C         4.41863166781119    2.40558288294139    5.75009553624247
H         4.90791344936984    3.30504480921094    6.12766708060516
H         3.73025243667577    2.05572210162945    6.52190508307637
C         5.46896966882127    1.32794537328148    5.47448913393752
H         4.98016122742204    0.46789657616542    5.01064967644209
H         5.90156078716509    0.99463579661298    6.41820611520202
C         6.58271479662212    1.83303748803893    4.54145574382935
H         7.16039995467843    0.98334336113649    4.16266480289106
C         7.57798008155542    2.76248312310016    5.28212594559423
H         7.01800210158343    3.36782136142035    6.00274924026336
C         8.59274106097447    1.91571853825766    6.04836432147423
H         8.10105201621584    1.20784126491009    6.71143594230432
H         9.23744246267037    2.55155652352033    6.65089381774549
H         9.21516175486283    1.35913720793121    5.35144496327359
C         8.31602003559820    3.71174370291463    4.34254221837349
H         7.63765825509092    4.42967075010386    3.88822313722635
H         8.81105403852503    3.15873450251816    3.54542371304144
H         9.07077264000379    4.26573820366175    4.89683124268495
C         2.79072951275963    4.03098047855736    4.70411217115274
H         2.13933132012339    3.90979215244149    5.56665737676184
H         2.17345533522606    4.23754211336573    3.83352771821214
H         3.43965927204136    4.88665950609255    4.87756164919533
C         6.80828438571708    0.73596018819967   -1.47802370865786
C         6.42962750148659    1.45960714120300   -2.61994958148017
C         6.03657525358129    2.68880341993600   -2.13621510521721
H         5.68157861735018    3.56714917105004   -2.63662957475206
C         6.53055417240137    0.95014332341174   -4.02183510137920
H         7.38355351112272    1.44987387406313   -4.50000920653699
C         6.80506332400055   -0.55931840202579   -3.99028298808371
H         5.87103514616568   -1.09147108464027   -3.80274319049065
H         7.17373108996218   -0.87636765744967   -4.96797354348596
C         7.82596865168739   -0.92416694968489   -2.91236293242962
H         8.71445039269890   -0.30143744351590   -3.04299104634972
H         8.13467330505594   -1.96245229421458   -3.02516906715104
C         7.27615072948783   -0.67940764732720   -1.49875673937767
H         8.08340217491929   -0.80387980368709   -0.76992422134825
C         6.12579391110858   -1.62974308100560   -1.08521288028456
H         5.23443742661668   -1.37546057105664   -1.66959047618779
C         6.47494607095351   -3.09563298948168   -1.33677025624506
H         6.52639284256396   -3.32179554098161   -2.39821879284402
H         5.71237086938672   -3.73531060241803   -0.89724234487874
H         7.43047876391241   -3.34084891858883   -0.87847806147502
C         5.79622925978785   -1.44056351426952    0.39386829382373
H         5.57469785002583   -0.40053587694166    0.61596761700799
H         6.64116263980080   -1.74489397440158    1.00667537467803
H         4.93444793859030   -2.04530145140673    0.66953075596425
C         5.27295252898627    1.26704408016554   -4.83091662641187
H         5.35704068490021    0.85368383487735   -5.83349547674604
H         5.12865265338849    2.34128961784983   -4.91266704667412
H         4.39578921151458    0.83626873391480   -4.35205142249385
C         9.18043840318859    0.21320713469276    1.94280332777913
H         8.55659846081532   -0.57324753988899    2.35746937453484
H         9.84807755874608    0.53002896503336    2.73876980262610
H         9.81040570741554   -0.25398131033733    1.19143063675402
N         6.48719596094566    2.68881293289173    2.20293567067951
N         5.57044453835531    3.26041438573198    1.42012212979591
N         6.65719646257829    1.48025375807033   -0.38950302935070
N         6.18243321957047    2.65739298695660   -0.79860431439922
O         8.76299404539339    3.30522925165315    0.36773240841943
Zn        8.11591599275097    1.73261436090767    1.20020614674629

