64
CSD_code = MIMDAO | q = 0 | S = 0 | Stoichiometry = C25H35ClP2Ru | MND = 8
Ru       12.92946910994666   15.95807909880662    3.03547560107240
Cl       13.74602345789018   14.39318453407021    1.41544686150795
P        10.98099603976886   15.99878891141794    1.87680763508761
P        12.39218824139626   14.22116832887256    4.39636698847101
C        14.36239482031305   17.50145771018396    2.31191352955611
C        14.96694631583204   16.82397260160343    3.42940888975088
C        14.17119898080191   17.08103825019563    4.57830949095953
C        13.03567061360490   17.86168676207414    4.17575749986910
C        13.19973738427512   18.14990191749160    2.78307589157883
H        12.60301217078223   18.85759672202457    2.21934063925517
C        14.98044564629171   17.64652225919264    0.95602202760019
H        15.94819844511010   18.14505732164919    1.03886501249439
H        14.33766196661177   18.23421600749016    0.30168742575828
H        15.14286585230373   16.67000190956442    0.49775854385743
C        16.32897064514221   16.20186071300395    3.38671874078104
H        16.42601936592095   15.55456553829593    2.51552652919683
H        16.52333137434243   15.61097265673235    4.27951946875701
H        17.08905370150910   16.98400907324382    3.31438220765611
C        14.55064369666839   16.82723409892877    6.00430889273851
H        14.97863320095104   17.74108637954750    6.42410447426367
H        15.28891786739380   16.03338070690326    6.08964389353527
H        13.68359816904014   16.55597954950370    6.60490630449113
C        12.10173464899438   18.57503956031500    5.10684746294327
H        12.62584330770947   19.39817560899498    5.59937034564184
H        11.72471552145044   17.90808101506773    5.88089562263738
H        11.25380658637389   18.98676732936318    4.56259791154765
C         9.69946696376238   17.21424263161857    2.38738250712218
H         9.43564346392923   17.06346943829704    3.43230594659676
H         8.81473035148850   17.12324507163918    1.75821936086617
H        10.11885798374149   18.21311732131543    2.27958379847308
C        11.22316327408448   16.51339161286959    0.13127167708222
H        11.55501208755741   17.55153828507156    0.11705640420213
H        10.29732624292683   16.41109714516434   -0.43516584446606
H        12.00286892925169   15.89183396656884   -0.30716029487715
C         9.99065933624682   14.48838640773916    1.62843487789981
C        10.48820620991008   13.51017016784039    0.76921438176041
H        11.43905471820384   13.66686110057504    0.28155153963570
C         9.79190054433757   12.33190073722453    0.57517842554036
H        10.18460016835114   11.58059074368011   -0.09399935697457
C         8.59694392745696   12.11046946145460    1.24138038196492
H         8.05218341899945   11.19014619777512    1.08933474006533
C         8.10693837954194   13.06945359114793    2.11167300555485
H         7.18030270261035   12.89706278961265    2.64089496651878
C         8.80022413953270   14.25137914231539    2.30844981003258
H         8.40752863900335   14.98863114260055    2.99362814894602
C        11.91799494908464   12.58426478915116    3.70933008390893
H        10.89563407711689   12.62922403789806    3.33835209294587
H        12.00130360359363   11.82292673284817    4.48553989764406
H        12.58546295006234   12.34994172001370    2.88097856616778
C        11.03531803610962   14.43796691868807    5.61516034890293
H        11.23288527262383   15.30214491883910    6.24658065438495
H        10.91168885379559   13.54474319278881    6.22596628660373
H        10.12213998374191   14.62054162843570    5.04874089037726
C        13.80775724582151   13.67424401845314    5.40525859142251
C        14.93809818365445   13.29126025354907    4.68637450286727
H        14.91367840534316   13.34637857287787    3.60503231635855
C        16.07331909679934   12.86036185869130    5.34537973184285
H        16.94650064183413   12.56508319451885    4.78149224134260
C        16.09312915994886   12.81456597027230    6.73109011099203
H        16.98099557116018   12.48357151426051    7.25008667349393
C        14.97415735727571   13.19805514059311    7.45022936699535
H        14.98920682954276   13.16506461202593    8.53051286589841
C        13.83284630990994   13.62685239657633    6.79287609798833
H        12.96919486122023   13.92549701048331    7.36862631292959

