85
CSD_code = MIMFIX | q = -1 | S = 0 | Stoichiometry = C24H48B4N8V(1-) | MND = 4
V         9.87296911188567    2.04499219173898    3.19678180337107
N        11.69707437724644    4.34571760462823    3.51180053738208
C        11.25643636536321    3.39079776187895    2.68790191205868
N        11.62355485942457    3.74775308211537    1.43348726430211
C        12.27474593167969    4.95694544908347    1.47091826236426
C        12.31475172431094    5.32467733166013    2.78658925848093
B        11.61738764393499    4.36930567118058    5.07371542451096
H        12.74825619456899    4.46042735137895    5.49308138348521
H        11.11130994215691    3.33305906190347    5.44025199300999
H        10.96243194935984    5.32495646723426    5.41171751944778
C        11.36772693489038    3.02889549570006    0.21747973674497
H        12.28804087590837    2.94793744006906   -0.36702444808612
H        10.60880641693342    3.54873931823612   -0.37418426005516
H        11.01369179255584    2.02819500751013    0.46370725434177
C        12.76781148160365    5.63477698967910    0.24137078836542
H        11.94455194905358    5.80165255258221   -0.45417178146101
H        13.52526825944544    5.03262135062641   -0.26465085715163
H        13.20694721058151    6.59607542911400    0.49608685759955
C        12.89302666926600    6.54105612301657    3.41643332500183
H        13.68858540826020    6.26325012154878    4.10713290841096
H        12.12499698268847    7.05123809675247    3.99504046027700
H        13.28878189692748    7.21778671427536    2.66160185725968
N         8.26652427698247    4.52306132586556    3.21408872285039
C         8.61475822917265    3.42806130484890    3.89567727514928
N         8.27414031473710    3.64045248021532    5.18973401147032
C         7.73437485199928    4.89678856868224    5.32347661503228
C         7.73513386661980    5.44430620310644    4.07126130393482
B         8.35713614852567    4.75436608281547    1.66978486672747
H         7.24088796021210    5.00050106579703    1.27399964925241
H         8.77293506404713    3.73827140051504    1.16092694767286
H         9.09482535002026    5.68663028856344    1.46248453452154
C         8.45731714411779    2.74141054617812    6.29378389967299
H         7.52792957995997    2.65799701577550    6.86350614864513
H         9.25140545082767    3.10883732611441    6.95003780994968
H         8.72877436782658    1.75817118901511    5.91048093351403
C         7.29779271587347    5.44039463238107    6.63808540148037
H         8.13006768526962    5.43869250326033    7.34289981475252
H         6.48918433729894    4.84253340429479    7.06363838165248
H         6.94485711433795    6.46191613320175    6.52069958844231
C         7.27261723684117    6.78299082748216    3.61887496665182
H         6.46702902561552    6.67531599761094    2.89332657097341
H         8.09003879730765    7.30150292452665    3.12086862687876
H         6.92471648075692    7.37808390191162    4.46097542092854
N         9.91952860135687   -0.22798809410013    1.31148353312004
C         9.21077065002133    0.80193176872459    1.78237214493248
N         7.92426689480589    0.60400901831631    1.40629621286725
C         7.82307283784468   -0.58044261456914    0.71734683170491
C         9.08738205962712   -1.09669383155607    0.66433676918736
B        11.46788985949858   -0.43476463156103    1.39064080550759
H        11.87864899948747   -0.53973487095615    0.25760096085475
H        11.69041773964646   -1.44207756683248    2.01647131355960
H        11.94963392264327    0.53704022344231    1.92731145353501
C         6.79844636051930    1.44889488682959    1.68820183389706
H         6.14876621521245    0.97467360441356    2.42929432574337
H         6.22979340289350    1.62864396899258    0.77197343339791
H         7.15719638532470    2.40168693781970    2.07645764100698
C         6.52468371843947   -1.09460339319314    0.20331166116520
H         5.81370395338333   -1.21245226748755    1.02184577839520
H         6.66841800588048   -2.06124728187326   -0.27289040938242
H         6.09141184775852   -0.41005475036070   -0.52883052268351
C         9.57306688107221   -2.36015527179429    0.04913363240493
H        10.32971829395554   -2.14183010822033   -0.70344169083049
H         8.75263455898778   -2.90886459027302   -0.40939001741124
H        10.04299638448585   -2.98038634506438    0.81072482739966
N         9.60784236934704   -0.45162879599965    4.75053624314980
C        10.41096012185252    0.56405447277066    4.42172792232498
N        11.67167430937456    0.19866777908078    4.75764217267867
C        11.65962795244852   -1.07413057351137    5.27497492890664
C        10.35290372544300   -1.47436760601354    5.26504414670833
B         8.04751664755598   -0.50280858845563    4.65352187705392
H         7.62212367283138   -0.72964017768370    5.76277344807064
H         7.73784779070076   -1.38673179683112    3.89242540750061
H         7.66017331819546    0.57510609993536    4.26281781888424
C        12.87191063967485    0.96776695489945    4.58778085068925
H        13.47885801268711    0.54442952117067    3.78250214954863
H        13.45000973441097    0.96443710948896    5.51558354093053
H        12.60427502361417    1.99440350804044    4.33938901061009
C        12.90242268716267   -1.77213430589714    5.70238087892621
H        13.38990654534782   -1.24272005469076    6.52359920448978
H        13.60611749740496   -1.83413324085350    4.87152798309903
H        12.66839415836001   -2.78036705930857    6.03468115338877
C         9.74918762420511   -2.75998317612858    5.70488151131983
H         9.04719569994101   -2.58502186539031    6.51956756378319
H        10.51774147430577   -3.45723785009580    6.03276953052386
H         9.18776344587707   -3.19868687908706    4.88194344927619

