67
CSD_code = MIMGIZ | q = 0 | S = 0 | Stoichiometry = C29H34ClIrN2 | MND = 8
Ir        1.89650550696427   10.10810820195241   23.27314357419421
Cl       -0.25786872810359    9.65971373354452   22.36630918198775
N         1.74427843335209   13.07658007893792   23.72721888338113
C         1.63737214933322   12.06158036817212   22.84053268864740
N         1.26201370706549   12.63253037144437   21.67317428527833
C         1.12330954726429   13.98258851505307   21.84045833302123
H         0.82503688485347   14.63940829422664   21.05066697133221
C         1.42209885050822   14.26161892393499   23.13101458118565
H         1.42124466704199   15.20191847013674   23.63916307472751
C         2.15904191799782   12.85167739914247   25.10564386252377
H         3.14886663751988   12.37672091130932   25.05000987816609
C         2.30245733879498   14.16324853352415   25.86375889561701
H         2.99715204999746   14.82163360560193   25.34584983463548
H         2.70632939940654   13.96463544780217   26.85235054189802
H         1.34403188119379   14.66531335191830   25.96975102044212
C         1.21584198743785   11.83279150991416   25.73054143842254
C         0.99974545616397   10.63296032885168   25.03884177434830
C         0.16977558131961    9.68522542298417   25.63121267461763
H        -0.02830305338817    8.75366642883811   25.12063691725376
C        -0.42889147210392    9.90585810385666   26.85965993499108
H        -1.06661865341069    9.14846789135338   27.29236955317021
C        -0.21210991869515   11.09708408009321   27.52468917620461
H        -0.67761691094870   11.28441749074693   28.48131717413369
C         0.60789208245001   12.05635334755822   26.95742225877481
H         0.76929365866890   12.98044346297563   27.49065838557420
C         1.05851282036623   11.93117966444627   20.42325725138496
H         0.93557562420686   10.87421401349334   20.68574353117384
C        -0.23853962074570   12.39289759805456   19.75383807242317
H        -1.05688180943700   12.31128477908742   20.46415076621160
H        -0.45653461906581   11.75191379779201   18.90519733199523
H        -0.16394869703903   13.41738235211201   19.39634447511076
C         2.23259818111896   12.06422090033028   19.48042473220173
C         2.32245448046588   11.16883507112727   18.41886427711863
H         1.56814229585774   10.40353848820943   18.30861441288891
C         3.36600246129341   11.24415115698925   17.51578291869312
H         3.42320032057288   10.53844804770370   16.69991896536488
C         4.34156206555508   12.21716925268658   17.66167037525183
H         5.16031662924024   12.27540794690085   16.96013521030538
C         4.26137520390430   13.11029437584974   18.71436445244565
H         5.01894043357149   13.87060906546981   18.83720278953760
C         3.21341463926229   13.03578808367470   19.61759535165658
H         3.17382881745324   13.74016104695648   20.43564560758848
C         3.25677698683622    8.56090643118386   24.23481616468774
C         3.26127568230712    8.09058983221954   25.65598723665034
H         3.24299965290801    8.92920864364157   26.34970002054295
H         4.16393584005193    7.50645418078265   25.84804326118718
H         2.39799987327541    7.46428955040163   25.86642485997699
C         2.60978737303406    7.96311030878425   23.13698601518310
C         1.77688655286680    6.72074676811256   23.13469933758125
H         0.87431279165247    6.86660290631279   22.54110002249603
H         1.48221744786468    6.44201001370485   24.14439627751853
H         2.33902119381482    5.89194609585769   22.69772932220081
C         3.07701323716406    8.60607492593518   21.92472703763641
C         2.73458012471912    8.12480128525817   20.55210315168645
H         3.18166080280841    7.14443086639281   20.37457415224305
H         3.09854829825168    8.81266151029785   19.79146857524604
H         1.65486856087154    8.02394060593285   20.44225452876495
C         3.96349033957441    9.62368621074072   22.28339060196765
C         4.83067018547974   10.44476548206658   21.38221011419465
H         5.85346355093598   10.06246367644447   21.40834262074415
H         4.85658365878191   11.48757099001349   21.69564193059413
H         4.48091757590472   10.41076044878911   20.35345442766761
C         4.01134433823525    9.67943217478896   23.73211720249055
C         5.06048547381206   10.41555215983344   24.50996969863670
H         4.75480202565871   10.55541248202038   25.54520340030640
H         5.26890894887208   11.38911776666916   24.06918678412967
H         5.99135125704923    9.84342476906278   24.50992783976168

