63
CSD_code = MIMGAR | q = 0 | S = 0 | Stoichiometry = C23H27B10CoS2 | MND = 8
B         3.98219311442043   12.14109305576980   14.21511338344317
H         3.75952660244367   12.37127855073855   13.08706374498261
B         5.54839995446974   12.34232782377287   14.99510436599173
H         6.42659701920630   12.82554600429921   14.38570274719197
B         5.88560872990042   10.91551588917224   15.99219606146811
H         6.97505718165396   10.47448934469615   15.98635809333740
B         4.53589270504211    9.79680234468959   15.86593459942497
H         4.65645822230307    8.64076618407771   15.69977257128398
B         2.74959837015245   12.00614350514549   15.46295561916294
H         1.63798842810685   12.24810849267289   15.17880683098478
B         4.10578203625469   13.15497495842487   15.63968867975164
H         3.95526812501919   14.31714572464934   15.56025838454073
B         5.29186722455433   12.40430796177005   16.75127782971855
H         5.98378793068740   13.05626474061590   17.44173650878377
B         4.66122319020968   10.82068145374095   17.28220428512401
H         4.89468786910798   10.35932832442777   18.33671214776522
B         3.08833196518096   10.57722861140830   16.46477004758859
H         2.19163842237740    9.90858542320852   16.81752840700769
B         3.54037981397969   12.19464669237449   17.04147818608929
H         2.98345577437632   12.69837216672730   17.94488113403448
C         4.99094526711765   10.79318208804957   14.53466077323979
C         3.44145517198217   10.59673134791623   14.78790677621527
C         6.27900142234114   11.04848173452154   12.05437481031387
C         5.54409800151106   11.42064290918388   10.98682702771046
H         5.97645724418408   12.17996698619775   10.34611625940023
C         4.28873392063609   10.91261943424960   10.53442300524545
H         3.88782366454399   11.46075930301061    9.68469789597535
C         3.56955539365991    9.84882432341537   10.95299885260267
C         2.39900349035707    9.47799503823113   10.14591355000373
C         2.59743847021949    9.21792634485362    8.78560309847059
H         3.59611214661619    9.28728264682098    8.37721069758150
C         1.54188408370539    8.86363594453436    7.96920418505771
H         1.71871960942817    8.66076472333995    6.92251623105591
C         0.26063335519783    8.77157332511400    8.48760674942479
H        -0.56514714250440    8.49426983084012    7.84924140947973
C         0.04785753345372    9.04113461133745    9.82900752964171
H        -0.94943265888542    8.98110455352638   10.23976150912316
C         1.10331135139784    9.38646443838916   10.65206377452559
H         0.92211370321772    9.59857023868081   11.69394452728106
C         7.61387704183697   11.56634126492301   12.34537613420498
C         8.56292908433995   10.77034742557609   12.98727570586953
H         8.30804524636498    9.75969151289554   13.27085533298998
C         9.83041982089360   11.25236473106963   13.24982907702756
H        10.55132598609823   10.61780231897748   13.74348636895144
C        10.17628441173271   12.54177412774694   12.88342258803188
H        11.16540306424657   12.91996021993197   13.09222646025716
C         9.24086774707060   13.34606602688453   12.25286206085421
H         9.49842434999766   14.35691333170051   11.97349799382411
C         7.97357829802579   12.86741755754000   11.98633352995134
H         7.24577918658487   13.51578857336340   11.52270770724790
C         3.57000880661866    6.64247461983702   13.15993563473198
H         3.00343554715246    6.40147486909454   14.04436534387513
C         3.02487477424879    6.82188473957508   11.85263725966835
H         1.99035709155019    6.68131847193804   11.58135636800944
C         4.10292795145947    6.96999537267695   10.94920510385817
H         4.02860178510693    6.99490305969240    9.87469937585831
C         5.29199219030183    6.98827100161044   11.70348352938036
H         6.29368762898706    7.01733054381004   11.30292056528153
C         4.95577580126480    6.74459321151196   13.06753906815257
H         5.66249497625328    6.60319531597991   13.86943825543453
Co        4.03485942270629    8.58880242390272   12.31561483458212
S         5.69260741975353    9.79883241864119   13.17248884877146
S         2.49473565976834    9.59171978652047   13.63732056315985

