83
CSD_code = MIMHIZ | q = 1 | S = 0 | Stoichiometry = C44H36P2Rh(1+) | MND = 6
Rh       20.54130974114312   -5.58656192800907    6.97532360477893
P        19.91451951226142   -3.45452957014054    6.82473437171552
P        21.78717458913468   -4.94556383258734    5.25301289879551
C        23.19210084039139   -6.12676815683044    5.01447515937653
H        23.95373739756972   -5.65201978862769    4.38313025345675
C        19.49130636934400   -2.70573504565635    8.46614145470505
H        19.29433367365224   -1.63608058553858    8.31527380563780
C        22.54714706438651   -7.25816102139876    4.26464392071802
C        18.22422515265102   -3.38926797484915    8.89379592945342
C        21.38458970460960   -7.85974648911204    4.76936405104403
C        18.14013310749664   -4.78826559970529    8.97678823046687
C        19.28031080727372   -5.69685110203311    8.87768963107249
H        18.98417471656871   -6.74619027264660    8.94255290865805
C        20.87688532254706   -7.66598017250994    6.12700731990132
H        19.91065047402631   -8.15546162596652    6.28331504255187
C        21.64586075350205   -7.48447021846304    7.27531723780430
H        21.26489670199682   -7.96203630476670    8.17718295311261
C        20.59687442719555   -5.41770139234161    9.23405601396346
H        21.19271607311239   -6.26573924399125    9.56423994217547
C        21.18060028478236   -4.15525714984453    9.66951843118529
C        23.06925873831149   -7.16064595374452    7.34572948998977
C        20.65380784060823   -2.88320805029610    9.39208241359549
C        23.80455999667133   -6.53277458974860    6.32414643818436
C        22.33782199919887   -4.23527700762122   10.45670780773245
H        22.76555811005387   -5.20593879333252   10.66184126393670
C        20.71028621673392   -8.78106582725409    3.96062790628482
H        19.80515517531530   -9.24208895524202    4.32878915925955
C        22.93184176077473   -3.10888682241689   10.98471732752526
H        23.81912275512683   -3.20064218145746   11.59134472261206
C        21.18978444074055   -9.12744768007465    2.71486197322714
H        20.65355163148016   -9.84415962441713    2.11275656811172
C        22.36113626642550   -8.55759551932709    2.24248221979191
H        22.74624316070474   -8.82739492181656    1.27188477909839
C        22.38229965478709   -1.86103346532429   10.73595024391312
H        22.83490017604039   -0.97283074371620   11.14803358547540
C        23.02415040994312   -7.62122235281409    3.01357344297269
H        23.92264438096026   -7.15567728123006    2.63520285063667
C        21.25688098984636   -1.75803711477652    9.93915653759819
H        20.83878176835516   -0.78291889509412    9.73265895474219
C        17.08877891022526   -2.62046673714755    9.11109764656082
H        17.16153875332709   -1.54418573736697    9.04927499468486
C        25.15716480158030   -6.28056194409690    6.51864814975664
H        25.72149538742779   -5.80311101099740    5.73021936793962
C        15.86818769248269   -3.20515777296963    9.39089314283704
H        14.99875155175547   -2.58800990928434    9.55333011124868
C        25.79672877847120   -6.61948480110623    7.69645797471698
H        26.84618806108859   -6.40453889694775    7.82199038432631
C        25.07909386784017   -7.23276363081120    8.71017964230355
H        25.56535921091920   -7.50619263531316    9.63368535986889
C        15.76808511435339   -4.58624238778772    9.44178457652022
H        14.81782814998527   -5.05529724947348    9.64380940486887
C        16.88929499356773   -5.36154920192269    9.23764419173791
H        16.80717188892740   -6.43762516575222    9.29295953717941
C        23.73785230833165   -7.49529981850826    8.53103073083803
H        23.18730075686877   -7.99030972452758    9.31906247149453
C        18.40721725409670   -3.13375452537493    5.88131763758935
C        18.03382207304930   -1.86690431757379    5.44870549402971
H        18.68035131667182   -1.01826553382549    5.62559905139492
C        16.82710703856602   -1.69871646475060    4.79401774612385
H        16.53218689823924   -0.71716101796925    4.45531260085972
C        15.99370531545899   -2.78493531364863    4.57731132748154
H        15.05241834827585   -2.64471003721254    4.06868385240789
C        16.36175801647159   -4.04801056552990    5.01344886087773
H        15.70771466270167   -4.89019270650418    4.84617756625534
C        17.56704095097053   -4.22195957608799    5.66555385453671
H        17.87579768527934   -5.20335256746033    6.02165383254794
C        21.16968735993137   -4.70155705175325    3.57004123458002
C        19.90280190736075   -5.18347227960559    3.26178610298334
H        19.31959127535804   -5.66214295916723    4.03886483590085
C        19.40521288298618   -5.05379738680490    1.97888475595480
H        18.42058441070050   -5.42592404971277    1.74098256662514
C        20.17586534321913   -4.44822035470334    0.99976399542233
H        19.79100667210485   -4.34722227081235   -0.00324883881893
C        21.44313267894194   -3.97367165991835    1.30195477000732
H        22.04151471328735   -3.50687981345095    0.53432918964534
C        21.94443143803108   -4.09895793343403    2.58415383291768
H        22.93537401635379   -3.73338812320186    2.81610801146152
C        21.25756177151885   -2.40497374751254    6.07768168104940
H        20.86579985090359   -1.97152333166869    5.15223851176547
H        21.53475739234745   -1.59446101370638    6.75748334712378
C        22.45881930859716   -3.30377570220022    5.76836958521455
H        23.04833193319097   -3.48146061971135    6.67597585933365
H        23.11185507248118   -2.86237919792184    5.01127020257329

