61
CSD_code = MIMHEW | q = 0 | S = 0 | Stoichiometry = C28H30ClPRu | MND = 9
Ru       12.12358924353768    6.70204946460962    1.79764245800531
Cl       13.76082647266831    5.16916480855714    2.57485035674090
P        10.46509962533394    5.73468650131456    3.02919821210958
H        11.81451150383894    5.62101021666388    0.76437775293758
C        11.23616264901927    8.59443989251191    0.90742712805127
C        11.38938956392971    8.71958064698920    2.30925233798510
H        10.54446114436470    9.07047137187798    2.89741837208183
C        12.65638388548532    8.60444834687575    2.93228256456898
H        12.74916327916609    8.84913646428449    3.98286199367710
C        13.78669852642726    8.26930407039981    2.17524284351801
C        13.62644567007038    8.03237560837135    0.78512866643508
H        14.50133592627408    7.81822720455090    0.17860167537977
C        12.37160145884813    8.19985687708071    0.16283188938530
H        12.29624744345031    8.11951066869081   -0.91762875452166
C         9.96111665637792    8.98046922365161    0.21523461925946
H         9.13192966419480    9.03340171050891    0.91740558901051
H         9.71025615889178    8.26452693411731   -0.56521466086621
H        10.08261915522465    9.96145971952149   -0.25023376806512
C        15.18689113144520    8.30651583789925    2.74419765207888
H        15.81741328213782    7.65102147209847    2.13209212969425
C        15.69944502291069    9.74639519470682    2.60660252235471
H        15.65972673899177   10.07768509555028    1.56997204844193
H        16.72959514806247    9.80881074138306    2.94925682374451
H        15.09441426127866   10.42382035669738    3.20780997563796
C        15.29679036859568    7.82997480365105    4.19078853007418
H        14.74063313300759    8.47170961405303    4.87163960342914
H        16.34088370393236    7.84141631260271    4.49553898211295
H        14.93143295243727    6.80870965343555    4.27081563525566
C         8.88035604059125    6.55568468387980    2.67166293110806
C         8.31880787493621    7.53585008849451    3.48213782161705
H         8.79005389048947    7.79640085474108    4.42065094807738
C         7.15140159681886    8.17153810207412    3.09287822524094
H         6.71501988890336    8.92889381637954    3.72859253140749
C         6.54277475421891    7.83935278065296    1.89396942094154
H         5.63007413412987    8.33494351840662    1.59737008159320
C         7.11052109608846    6.87660801976184    1.07198030153934
H         6.64103980269198    6.62495216689474    0.13234315976145
C         8.27812946946562    6.24463528466119    1.45397054670384
H         8.74719086504118    5.50268504263965    0.82068175283061
C        10.01851263832373    3.97465638791273    2.83973991584837
C         8.72499319972215    3.50978014797215    3.06175872875755
H         7.92711074567636    4.20196106493002    3.29273089329298
C         8.45091603908651    2.15794664442087    2.96422326320667
H         7.44426801517758    1.80238069470556    3.13195559871231
C         9.46058591374620    1.26214490706945    2.65186077333361
H         9.24038632113043    0.20710839103119    2.57786185219220
C        10.74829436518872    1.72181440247292    2.43176130078500
H        11.53671712780451    1.02657911707398    2.18517813301655
C        11.02985188852816    3.07320968779442    2.52532538797466
H        12.03042275775817    3.44430139389973    2.34906642133725
C        10.60676724471304    5.80966855256188    4.84934399377006
C        11.86269438110415    6.03741848398253    5.39853216206424
H        12.70939583924319    6.16024380477028    4.73615407784056
C        12.02892022451965    6.06948716322026    6.77189409749073
H        13.00882518566702    6.24436657524225    7.19193191636154
C        10.94060850342701    5.87011058989929    7.60400510423770
H        11.06600535333178    5.89631478076844    8.67665522307289
C         9.68898934717099    5.62321951413532    7.06063668785966
H         8.84222624079024    5.45468332092152    7.71053841381089
C         9.51889229643575    5.58618003204921    5.68947006215432
H         8.54338318822900    5.38390117176738    5.27104509366308

