60
CSD_code = MIMKEY | q = 0 | S = 0 | Stoichiometry = C28H29PPtS | MND = 4
Pt        0.10867721073965    7.14538227741247   11.49891166884812
C         0.78813928620469    5.61770864332983   12.61984185873713
C        -0.06396660391882    4.51349838917821   12.70011812560415
H        -1.05228162042023    4.56005805950882   12.24901512637736
C         0.31746594866905    3.34812816120508   13.34274810998422
H        -0.36329157917818    2.50804906946706   13.38773033915551
C         1.56996015303859    3.25497799409062   13.92438615463824
H         1.87301536286948    2.34492055313110   14.42357617713869
C         2.42743052367095    4.33901831546962   13.86701346442530
H         3.40506244866781    4.27803469993431   14.32661418365154
C         2.03878225611203    5.50479393777025   13.22722358530269
H         2.72806617587942    6.34138217892941   13.21408016164518
C         0.08168604337347    8.23786385069735   13.19093119497972
C        -1.16956540977771    8.39878041322818   13.78597880353311
H        -2.03025847723114    7.87331108751828   13.38250753378082
C        -1.33903979862332    9.22158958164560   14.88567644708708
H        -2.31793103257004    9.33199530963089   15.33212131258813
C        -0.25751747677967    9.90746742132936   15.41212474563566
H        -0.38708488405175   10.55436367006594   16.26842189296273
C         0.99087835949117    9.75675847559768   14.83551933574769
H         1.84057276512583   10.28790135949386   15.24296160767375
C         1.15994684934459    8.92917614265029   13.73653714297158
H         2.15152539706112    8.82918230641073   13.31093461378154
P        -0.62566010620581    8.84644369837445   10.08908108655063
C         0.82629692269596    9.81837461780587    9.57057727311810
C         0.74264199687815   10.88509527242314    8.68292697754933
H        -0.22099211043291   11.19515747483489    8.30099906354157
C         1.89147266224837   11.55449975514242    8.30415017459516
H         1.82819653320785   12.38451988242636    7.61538806654708
C         3.12388676183408   11.16546670591780    8.80698786877933
H         4.01739279219343   11.69158064717331    8.50450257629176
C         3.20970447712981   10.11096689586022    9.70110939120035
H         4.16891523247689    9.81466285340020   10.09962677616771
C         2.06145085268136    9.44189725759079   10.08406089821026
H         2.09410802693891    8.62160430149932   10.80018375442548
C        -1.82531197779219   10.17854349514754   10.38098815203490
C        -2.99605245386901   10.37996388386547    9.66058467237617
H        -3.24609363484639    9.74262516325149    8.82481522706890
C        -3.85372498325421   11.40827330003821   10.01273936794153
H        -4.76010917079206   11.56584536004266    9.44573989921894
C        -3.55710573432674   12.23036581240593   11.08624922562874
H        -4.23259195676498   13.02850862390210   11.35649574312274
C        -2.39730702206513   12.02327898831690   11.81754945070346
H        -2.16785025186134   12.65522334081814   12.66245678370320
C        -1.53743608058519   11.00122009393922   11.46953860113749
H        -0.63676612475460   10.81932380412628   12.04170369706451
C        -1.13105152236249    8.12630781464115    8.45078192036007
H        -2.13708659874272    7.70821993902801    8.55378435100866
H        -1.13778929946268    8.89109339900232    7.66829068157538
C        -0.15538385986710    7.01816772185962    8.09306046540329
H         0.85605932199932    7.41557887401937    7.99758694327399
H        -0.43912673005146    6.51926848129658    7.16380478483017
S        -0.14720840968633    5.73217443556013    9.40815892782403
C         1.47592828290238    4.95076395304177    9.13108696364626
H         1.44113098855368    4.05460764850975    9.75141284799064
H         1.51900327177335    4.66086280898589    8.08021925843600
C         2.64107686247797    5.82947109321424    9.53847869739480
H         3.56302410524191    5.25200003616159    9.52328051617102
H         2.47600542405204    6.19242490004129   10.55643947396847
H         2.76038161475189    6.67977576866472    8.86878585486370

