85
CSD_code = MIMLID | q = 0 | S = 0 | Stoichiometry = C35H40Cl2O5P2Pd | MND = 4
Pd        7.21824572742058    9.46497949609271    6.03997223999871
Cl        5.29678206185141    8.28153856098350    6.05193027293668
Cl        7.26236736581889    9.65590166160614    8.30655015537145
O         9.08396028413841   12.03331942341911    6.67458302782233
O        10.48595325937300    9.92496250492814    6.42227171883122
O         9.53242769326913   10.96733436519326    4.45163812271343
O        10.06709449566431    8.82112142932133   11.80887103768480
O        13.18159030792349   14.67581301368219    9.27254307903724
P         7.19102321379243    9.78309054622971    3.81398634867989
P         9.10577063061285   10.61316163354428    5.97679962650793
C         8.93921274792429   10.28381845102361    3.37537242252010
H         9.52471567199237    9.38619741512139    3.12864819039237
H         8.94960345252660   10.97039520301509    2.52024397261267
C         6.35092643420220   11.39693994057205    3.67290691647050
C         6.27059703163521   12.05770036191496    2.44946083917824
H         6.65689822078223   11.58361570762497    1.55675258132965
C         5.68753028340151   13.30901317439331    2.37813930457160
H         5.62763774039575   13.82048383419520    1.42870650879439
C         5.17902259107862   13.90471031706879    3.52196295144795
H         4.72778414033518   14.88399453381275    3.46259530956318
C         5.23640784113618   13.24187353430471    4.73681049238385
H         4.82691884249289   13.70079702264578    5.62405256956104
C         5.81756829762566   11.98778879886941    4.81824877181807
H         5.83394094970205   11.45855454871473    5.78335871701928
C         6.59004605197165    8.85000857369791    2.38283027438174
C         7.27062971583408    8.73664199654644    1.17435805320948
H         8.23655882170946    9.20154389731371    1.04001771048016
C         6.70282157811901    8.01759133882366    0.13720774749386
H         7.22867642128467    7.93006205658549   -0.80235676618380
C         5.46796243201011    7.41052632631244    0.29980675479909
H         5.03410497648162    6.85094867323034   -0.51547634753506
C         4.79579085089441    7.51304324154086    1.50752814059450
H         3.83924000406065    7.03051471149493    1.63855734899668
C         5.35344201538354    8.22888964561551    2.55021623295964
H         4.85823442039136    8.29660074182057    3.51082983148295
C        10.46984857535890    9.55153807499887    7.77804394017936
C        10.32094486612725    8.21972283021367    8.16836875250823
C        10.18624291592344    7.97557287128839    9.53158035296016
H        10.02757262738640    6.96832079525118    9.86901997067415
C        10.21985109573805    8.99902896532782   10.47139054126201
C        10.46448602273214   10.30207508496344   10.05475078001768
H        10.50907561244876   11.08797563500937   10.79066157731812
C        10.57476533258215   10.58892612984131    8.70433323344915
C        10.86200316472456   11.98182689396641    8.29782898988359
C        11.89686468878979   12.62870807262010    8.97303107445452
H        12.45920236923189   12.06494493906185    9.69898744786471
C        12.18325096285554   13.95236467219263    8.69549243333573
C        11.39600768588255   14.64156204453761    7.77305694399923
H        11.64057926637628   15.67770753564249    7.62192956573975
C        10.35462519482634   14.03889092444839    7.08851597072573
C        10.13070598075684   12.67546851783285    7.33869968621474
C        10.37477193817161    7.06506799590183    7.16827110099469
C        10.35086503638020    5.69719035487005    7.86189967424712
H        11.16428495223282    5.60103683006921    8.57698279842256
H        10.47395630565997    4.91715881151959    7.11321589795034
H         9.40167683588183    5.52913339086308    8.36418739750106
C        11.69191846043532    7.16520020084689    6.38280586244261
H        12.53880325585676    7.08086943654403    7.06072914638628
H        11.76855295316431    8.11250352358862    5.85819192323563
H        11.75176641796038    6.35925585632224    5.65401590013355
C         9.18351838581890    7.09767791011518    6.19504151169435
H         9.32002790288739    7.87900539407039    5.43575045675614
H         8.24057686801892    7.24392593621458    6.75167166778136
H         9.11550019005639    6.14572990365386    5.66969797429334
C         9.65113514795919    7.55979122024254   12.27853882292972
H         9.48426854678206    7.68541748166114   13.34722240172623
H        10.42140117106447    6.79675259338073   12.12302904202873
H         8.71922943477102    7.24533663660620   11.80040838890766
C         9.46576986788248   14.84424715964504    6.14528581483856
C         9.85700632987189   16.32650670604025    6.10492778582650
H         9.78699279610798   16.78017787701793    7.09016656345572
H         9.17276642108700   16.85470293395931    5.44402304759162
H        10.86404043239613   16.46004911823693    5.71758240090652
C         8.01210642389470   14.76627201305223    6.63446291473570
H         7.93648527716247   15.17251848368122    7.64093632733141
H         7.65080368392693   13.74365081020227    6.64885791225661
H         7.37054121123626   15.34768845696769    5.97512288823005
C         9.57538239045546   14.30248935270958    4.71440110191803
H         9.21322940790274   13.28360204812758    4.64530676258187
H        10.61193029101406   14.32408383244804    4.38351589543882
H         8.98253810712469   14.91820554827386    4.04043438429325
C        13.98734361396510   14.04801643103616   10.24118881607301
H        14.70236539039854   14.80328463880392   10.56335155565387
H        14.52749507308644   13.19316490599632    9.82207490199247
H        13.39703654444790   13.71817553893760   11.10178554086734

