86
CSD_code = MIMLEC | q = 0 | S = 0 | Stoichiometry = C43H36CuNOP2S2 | MND = 4
Cu        2.77322999914026    6.68332273012126   10.11583497096379
S         4.64703125543947    6.17194790065499   11.46365559484960
S         3.54618288858716    8.82423091501846   10.80730536043495
P         0.97296915247089    6.09145153333456   11.33203444032758
P         3.18467568933229    6.56823774134502    7.91852201370469
O         5.55843233938876    8.49432155192790   12.31832716769134
N         8.76673721283820    7.09489201152775   10.06574376541046
C        -0.57915789845463    6.78335893423252   10.68986002744156
C        -0.80187563528445    6.60152182102094    9.32612178955827
H        -0.07501474310261    6.04782998093889    8.74383637709951
C        -1.92945135980181    7.12621849986026    8.72785029397920
H        -2.09643638718199    6.97907416924666    7.67109282300290
C        -2.83650457108091    7.85144320278210    9.48569828387307
H        -3.71623433090767    8.26975722179842    9.01938892627065
C        -2.61278555792263    8.04477470686389   10.83867449037526
H        -3.31929086407908    8.61269006132885   11.42656474537955
C        -1.48700465840164    7.51477672462988   11.44531744224868
H        -1.31461792556002    7.66750756077457   12.50136571167991
C         0.66543476458012    4.30007700622379   11.29072445564580
C        -0.59922941493634    3.73412922824646   11.17406567721606
H        -1.47284787080108    4.36883209861147   11.12399652277220
C        -0.73063534590511    2.35770059509130   11.12065763433148
H        -1.71296825267083    1.91689079024005   11.03052254151905
C         0.38997395811682    1.54476006395805   11.18235553842993
H         0.27892746377585    0.47110476839005   11.13775455379223
C         1.65207938909458    2.10662340681490   11.29719411398807
H         2.52652647212946    1.47426612421237   11.33977474298340
C         1.79123770510459    3.48058928463778   11.34691569804840
H         2.77070532142300    3.93678786461606   11.41966455088471
C         0.94601595474451    6.49044629051636   13.10372820507064
C         0.72348684566762    5.55106683492647   14.10390531818721
H         0.50456209917876    4.52449562088140   13.84489993320628
C         0.78753639038042    5.93800250351292   15.43112072208478
H         0.61310422361967    5.20935909371609   16.20979185065754
C         1.07942649219683    7.25053332105116   15.76449065338118
H         1.13278847240116    7.54357085083166   16.80291923731827
C         1.31299929488457    8.18633111171229   14.76826943041151
H         1.55215363497920    9.20740293761067   15.02736489118787
C         1.25248503767505    7.80853819057498   13.44102245465000
H         1.45309716342276    8.52342684842341   12.65255745647687
C         4.65417001101380    7.35424724451174    7.19697124094730
C         5.85843013432974    7.12736036773431    7.86030916819574
H         5.86853199751418    6.49361441854069    8.73913852008270
C         7.02422158295286    7.71301473620403    7.40473838267394
H         7.95060366526086    7.54255134131677    7.93386337773864
C         6.98699764069975    8.53433810090252    6.28838809229390
H         7.89478953051524    9.00015839817239    5.93375038425237
C         5.78941996754728    8.76949194182617    5.63188701018689
H         5.76500566173272    9.41582307793008    4.76603795279466
C         4.61882421826058    8.18661530169798    6.08364919772845
H         3.68169851068071    8.37751952703638    5.57900263150449
C         1.80634099905098    7.33740214583665    7.01994193319017
C         1.36351751121151    8.56121938409714    7.51849531159079
H         1.85741172547507    8.98592060028804    8.38359993053221
C         0.30339818643288    9.21070990000973    6.91706784384823
H        -0.03771260372234   10.15959228804601    7.30341345624032
C        -0.32706215372218    8.63721494119634    5.82334793988061
H        -1.15899626487844    9.14203207740534    5.35415736853242
C         0.10347178723196    7.41469030865359    5.33405354856756
H        -0.39202781021848    6.96783712512418    4.48385932276169
C         1.16825364197095    6.76006355914977    5.92854719067387
H         1.50290365383979    5.80461846697155    5.54869024271431
C         3.22199567066974    4.87650686675177    7.25468591346181
C         4.06609792060699    4.45467160064994    6.23436301886578
H         4.74498681143797    5.15653639924880    5.77035169157825
C         4.03209927341416    3.13406442788971    5.82148180527934
H         4.68725053181456    2.80437384864039    5.02814587975768
C         3.16582883062970    2.23423628126713    6.42131395262003
H         3.14838260755173    1.20471538509605    6.09520171044737
C         2.32872238182087    2.65048609897095    7.44541512261968
H         1.65964969804434    1.95002663865994    7.92383534784575
C         2.36177470092929    3.96608186647054    7.86338768720236
H         1.73094494679715    4.30600169724760    8.67695341887264
C         4.65678690216645    7.84511024590579   11.58226940204789
C         6.53066329146943    7.73952863276234   13.01475555092284
H         6.03508355979314    6.98722100377096   13.64264408139166
H         7.03652017492889    8.46984100703081   13.65573541038139
C         7.52362254771927    7.06706238362286   12.10545991860930
C         7.89610754252573    7.64195674914898   10.89484407312360
H         7.46451674846751    8.58177515544406   10.57295724659324
C         9.31608909300818    5.94122954458705   10.40437548951209
H        10.01921285541368    5.53164255857912    9.69062267367674
C         9.02063093979832    5.27844863796147   11.58555373069266
H         9.48629944468969    4.33346190833457   11.81919617339179
C         8.10417167416039    5.85259787375846   12.44898367511198
H         7.83152585461846    5.36369583304774   13.37356657262348

