76
CSD_code = MIMLAX | q = 0 | S = 0 | Stoichiometry = C38H20Cl2F2N8O4SZn | MND = 5
C         2.31273468635769    4.50082789283287    0.01765558973109
H         1.38311654197094    4.88321297579234    0.41204782437748
C         2.96307494102832    5.13286247829366   -1.04452406142629
H         2.53858536591433    6.02187790730431   -1.48289420670472
C         4.14536291092850    4.60873844115719   -1.51203802780686
H         4.67287126959864    5.07469312671273   -2.33197356844025
C         4.66296557096099    3.45805198166736   -0.90086368419488
C         3.94522775307221    2.90262829082832    0.18539351843698
C         4.45235520281105    1.76012530312093    0.90894848017315
C         4.20180215221459    0.34395949720068    2.68986999212508
H         3.60281299049865    0.07242549458732    3.54752465048643
C         5.37666627833571   -0.34617213138777    2.38206184701030
H         5.69650015395644   -1.16803618415567    3.00315765960034
C         6.11500065494331    0.04856101996484    1.29027224330578
H         7.03689655187041   -0.43641015175420    1.00798957916379
C         5.65560952948055    1.12802665782349    0.52700090134696
C         6.34116774807907    1.66330648089605   -0.60082468534466
C         5.86185417578774    2.79556283460536   -1.26952771049419
C         7.73563829477890    2.07471840349274   -2.16466254104096
C         8.87318382287336    1.98243085620492   -3.06184848484042
C        10.00268180916797    1.20248590664872   -2.75874507838948
C        11.07338865787794    1.11372057830429   -3.63726770522155
H        11.92057105689440    0.50653688974883   -3.36290042330654
C        11.05398429291978    1.79100738294976   -4.84150132803744
H        11.88807233932095    1.71381287365031   -5.52013227541752
C         9.95928887458603    2.57002824048653   -5.17593485584883
H         9.90808603841304    3.11060904278457   -6.10706718842215
C         8.90548093349931    2.65076647852408   -4.29182753648848
C         3.43301796095034    3.35018571947536    5.39322791721017
H         4.43190153081693    2.94373756003135    5.17267971973905
C         3.11743566043214    3.29189419126654    6.85442003297926
H         3.92536168877183    3.51867647726764    7.53024040954702
C         1.87396692712740    3.04555255826235    7.27803279017408
H         1.63860160596770    3.03279790761914    8.33338334216738
C         0.83579472695890    2.75454920023235    6.32833315561825
C         1.21252374934084    2.61310592071302    4.98024497821490
C         0.21661465861836    2.31597735212729    3.97651809082004
C        -0.25671198946655    2.05246455037708    1.74118130980866
H         0.12808602883603    2.05357740560058    0.73067475491707
C        -1.60640016285852    1.79993820424208    1.99232694014561
H        -2.27735702034873    1.59875238978472    1.17175971594794
C        -2.05785824383120    1.83276582303690    3.29070812727571
H        -3.09324946453903    1.66604138785330    3.54552618676737
C        -1.14660442234318    2.10293107930199    4.31881715904494
C        -1.48864935230404    2.20730721505462    5.68585111951382
C        -0.51194507788163    2.54100068043744    6.64559744228105
C        -2.50046261019356    2.26201025785251    7.56759266246919
C        -3.52868154667899    2.17152903401990    8.58095080774395
C        -4.89648296281565    2.09201192255133    8.25806797241350
C        -5.87139708769983    1.98375207501607    9.23710535169556
H        -6.90498236124569    1.92915015773068    8.93578940008086
C        -5.52569321482100    1.95057812388477   10.57520899753966
H        -6.28847412336243    1.86444897432096   11.33204788248227
C        -4.19205295728490    2.02982344225213   10.93759575771955
H        -3.88071111614681    2.00561766764565   11.96959201922739
C        -3.23576985844784    2.13749742076386    9.95180622545443
N         2.78741566387212    3.42398206834193    0.60469539781613
N         3.75405841507894    1.35462477685502    1.97694711238529
N         7.49235080801362    1.24432765174801   -1.17502428743491
N         6.76514132042434    3.03978973770352   -2.25801875243686
H         6.72631407361099    3.79052546989108   -2.92703526798288
N         0.61934980276706    2.29764197206802    2.69474238073025
N         2.48461907529443    2.67940367512285    4.56657542596957
N        -2.69173132683750    2.04398002070396    6.28677459437169
N        -1.18083661916569    2.57235062964303    7.83098913472069
H        -0.77767677437641    2.78335041218125    8.72701914736728
O         4.39181914142202    4.00370208402535    2.87811926547364
O         4.15574950416031    6.38722183760786    3.36131175543628
O         3.51670482124324    4.76420505726989    5.04317575947814
O         2.22869200355066    4.95865042910789    2.95196013270684
F         7.84800846172213    3.41558860036676   -4.65740148481116
F        -1.94312958335507    2.19963896901551   10.36038258929161
S         3.59589137221307    5.08323381018751    3.48396761782095
Cl       10.11069162589847    0.35062561497935   -1.27853458962134
Cl       -5.41856219085705    2.14511379561983    6.62658760452742
Zn        2.56692884139778    2.97671012044206    2.65609727087984

