70
CSD_code = MIMMOM | q = 0 | S = 0 | Stoichiometry = C31H30ClN4O3Re | MND = 6
C        -2.19848486536319    4.59987700303486    9.56772268490589
H        -2.48485656145554    4.62641715845659   10.61740197645745
H        -1.40214442308639    3.86777809082666    9.44987927054979
H        -3.05534552428297    4.26487238706050    8.99174631816406
C         3.42262059142665   18.00964132823400    5.50613771317730
H         2.43148108460991   18.25931800122013    5.11878507455227
H         3.37899777554156   18.11419852241962    6.59433223892928
O         1.50082928185552    6.18892238551635    3.03280551165686
C        -2.37053375144859    8.41586651512879    8.86644930502149
H        -3.17641410032949    9.07745950813030    8.53497972643266
H        -2.04770008486191    8.76939482931963    9.84947929051714
C        -1.71160436186826    5.97705236885811    9.12950397679427
C         2.60170790773566   13.05825861212725    5.56798573750735
C        -2.87962674643129    6.97899224222667    8.94311447591609
H        -3.72941167734113    6.88966198310939    9.62013046270448
C        -0.57641019063129    9.67783290439409    7.59514604445107
H        -0.88796275653160   10.59704220041762    8.06505438390042
C         1.19986239406591   10.88167694788717    6.29252180075633
C         5.71632251455774   17.52422985200689    3.99119674530591
H         6.60325634594582   17.26747847971831    3.41395922948536
C         0.26922672995525    7.40148018022792    6.38292746213594
H         0.63547932999000    6.50942563070380    5.89055615219866
N         0.88545896104658    8.54138406326019    6.08124443859869
C         3.78606504901329    8.15656504641917    5.40112375446986
C         2.99358934147512   15.50900047665902    5.55681742296982
H         2.10652258749032   15.63414361714305    6.15739563986911
C         0.90511298547527   12.16233204232469    6.76680848311656
H         0.08557441413337   12.33873093530667    7.44867460165102
C        -1.22806439566587    8.49796614739440    7.89506013083941
C         3.76106724960380   16.58689754030603    5.15481384049176
C        -0.79006833820849    7.32336971158056    7.26613787712982
C         5.18949254389143   15.02429114104001    4.03706145649017
H         6.05491648848513   14.78448350601945    3.43254694662805
C         4.89881685015158   16.33922704892228    4.37548515709040
N         1.58165819921081   13.23177548970974    6.41259652108480
C         2.90961245929991   11.78752128276592    5.07336495478564
H         3.73380443772652   11.67266089590421    4.38303616065862
C        -1.53625137426683    6.07511892929465    7.58696678583556
H        -1.17207596190141    5.20377697079255    7.04594073913168
C         4.48165181554419   18.95003588954701    4.93731664832290
H         4.27983083015341   19.98947873172342    5.19851579895309
C         0.47217342263009    9.67521684313694    6.67430248298941
C         3.38089878834901   14.22596707125284    5.16490316953820
N         4.45820355986145   13.99564346716229    4.41610011019208
C         1.84534417813091    7.14594653929193    3.55748739667631
N         2.21586819340383   10.71264701038394    5.41605305620263
Cl        0.26595409891496    9.76511519296139    3.47335037100607
Re        2.23964009138346    8.83858958875160    4.44451013725439
O         4.68524677516675    7.75894753482892    5.99654306616536
O         3.80080454748839    9.84562117261004    1.97257642264445
C         4.77108314049998   18.63374491052945    3.44794779877516
C        -3.03149848273137    6.44736362363226    7.50865448723930
H        -3.30351645454629    7.17424495722952    6.74515044241756
H        -3.68502127171106    5.58447701294033    7.42948461471152
C         5.86607341313915   18.37160284096018    5.27125776324539
H         5.94950389877566   17.81734194649330    6.20502489444998
H         6.66899536091768   19.10030920713801    5.21436805727536
C         3.61611668709865   18.21850962763846    2.54626981944714
H         2.90939620541979   19.04116307104994    2.45146785955978
H         3.08333039153608   17.34849308102491    2.91783429921351
H         3.99410010354894   17.97809339012075    1.55429200511020
C        -0.53410842339366    6.36993609151825   10.01202725407385
H        -0.07668693309911    7.30909084037843    9.71526112782162
H         0.23143922388868    5.59783154523370    9.96393795554761
H        -0.86293112784081    6.45953345646260   11.04581347839894
C         3.27180932027629    9.42987686224470    2.89662942117603
C         5.53659666725810   19.75803239496176    2.75751781797028
H         5.93856151396030   19.40768382601839    1.80877188200356
H         6.36135667710340   20.12483794572670    3.36080105319731
H         4.86626337986568   20.59170235121098    2.55653881604425

