77
CSD_code = MIMTUX | q = 0 | S = 0 | Stoichiometry = C34H32Cl2F4N2O2Ti | MND = 6
Ti        2.33903891843890    7.58296423302939    8.24776559408907
Cl        2.81592715311869    7.20453223171152   10.42331424379628
Cl        4.05670172741782    6.32423996954186    7.49335164079259
F         1.16982614257901   10.32662883688738    7.06520466833906
F         0.56645621770602    9.84590936883943   11.71181992342322
F         2.87652678596562    6.23682437022046    3.98858227252851
F        -0.52378043237569    7.84999383359133    6.82074082776399
O         3.30775069987279    9.03311179935966    8.17277306881646
O         1.20593343445626    6.25548120099460    8.21619974736929
N         2.08513830854248    7.93961867131367    6.11056941806049
N         0.66484130853139    8.66385964722721    9.13822981263026
C         4.13356242830024    9.62410423986623    7.37054866753009
C         0.24436878129904    5.76555904911743    8.93051964714063
C         3.90695438609260    9.52555461754527    5.96341546896798
C         2.89173976236292    8.68619228579883    5.43002727771649
C         5.25142194014095   10.37316088463777    7.84265815517085
C         0.00303202838412    4.36333573299520    9.02565933677784
C        -0.60689927762626    6.66725801459661    9.63997263477444
C         6.00551356090098   11.06146564495837    6.91547422728985
C         1.02031507392868    3.38081880183674    8.45893665248613
C        -0.33557326574573    8.06129556747481    9.69244713742162
C         1.17230635583464   10.86863378323462    8.30711181629229
C         1.21643926726465    7.08713861160837    5.44392461235029
C         0.86198647469237   10.01757781107578    9.37074243161728
C         5.63558736671483   10.31113449688424    9.31577462347168
C        -0.12004249659279    7.00403599943245    5.84229749702757
C         4.71635379136477   10.25064191752986    5.07023113076259
C         0.84175760724012   10.60958469020042   10.64020908300279
C        -1.11467353474779    3.94591365846488    9.71745431848478
C         5.73596332900672   11.02812703342568    5.54460955494064
C        -1.72970158201982    6.17545771199858   10.33000127584626
C         1.60030403381838    6.22242551408664    4.41079705965740
C         1.44616633341583   12.20976771934122    8.46646017798085
C         1.41987522232847   12.75015694298656    9.74319644297431
C         0.56782557973909    1.92375723363115    8.60830719640713
C         6.03246645575117    8.86008303842321    9.62831716166015
C         4.46341186942468   10.73133338407538   10.21308905940838
C        -0.59914954195653    5.29538191940872    4.25642560874200
C        -1.99213447152617    4.83381659325613   10.34573337785933
C         0.71570976965933    5.33549056068197    3.82631669775711
C        -1.02652991004973    6.13621337571976    5.27281000215652
C         1.12025981260983   11.94991677835926   10.83187642056333
C         2.32658481166313    3.56244752036422    9.24716661243957
C         1.27461207040075    3.64454913403832    6.96838884437511
C         6.82777622625143   11.21696198838447    9.64484133869927
H         5.20229718096365    8.17654009861960    9.44979571816147
H         6.86996827384139    8.55313582212364    9.00436039948899
H         6.32221983625516    8.77130908054481   10.67277041697201
H         4.79966135354210   10.80039401709969   11.24516242087994
H         4.07492130580888   11.70210601763669    9.90800658209097
H         3.66111113867613    9.99751142227099   10.17393679599276
H         7.05296078482246   11.13417382620431   10.70570826374852
H         7.71663577775020   10.91758952095337    9.09497459458761
H         6.60289530152386   12.25948333305738    9.42861577364049
H         0.44598326353104    1.65199243294734    9.65396530757437
H        -0.36451471962185    1.74348647956844    8.07686580430703
H         1.32837509904134    1.27173296847982    8.18467901226981
H         2.16122514768031    3.36789325394785   10.30535535581034
H         3.08199017558189    2.87288710591404    8.87759760360951
H         2.71442059738026    4.57562874281763    9.14061406153147
H         1.89944208483507    2.85423216855208    6.55858714143044
H         0.33575998220074    3.66712966178765    6.41664704421605
H         1.79616695148548    4.58841351322164    6.82404695690143
H        -1.29247943046550    4.60650446417135    3.80171411636825
H         1.07175302899186    4.68451959412369    3.04417999771977
H        -2.04451786764220    6.12316356566485    5.62751788180143
H         1.67860788140855   12.81103985166184    7.60234204545625
H         1.63602132496477   13.79619618135136    9.88845415578533
H         1.10296234251342   12.34700790837112   11.83402387515065
H         6.84747448409197   11.64992589486022    7.24069275538131
H         4.52514965619588   10.17264250417914    4.00992708621362
H         6.35629138421240   11.59495726079291    4.86756406557976
H        -1.33449038496565    2.89396518551229    9.79500637305350
H        -2.36882227778241    6.87198952004532   10.85274747552604
H        -2.85583473761571    4.44832473436243   10.86530004911821
H         2.80340102545611    8.70268122892432    4.33850118025067
H        -1.06508648725584    8.65418622205619   10.25444692203448

