93
CSD_code = MIMVAG | q = 0 | S = 0 | Stoichiometry = C34H50N4NiO4 | MND = 4
Ni        0.00000484102633   -0.00001164136478    0.00001063677076
O        -0.01584195335202   -1.23000209234691   -1.36667910194045
C        -0.98831966939148   -1.86194103259330   -1.93882761854908
C        -2.34969781257486   -1.64865696360624   -1.60643971572598
C        -3.36314967140797   -2.38146015583790   -2.24550231249315
H        -4.37924334975397   -2.17612649119575   -1.94978321107323
C        -3.08041131919265   -3.32428392124768   -3.20484803983886
C        -1.72981918440195   -3.52127678690318   -3.53231189665269
H        -1.47147183727470   -4.25122809566171   -4.28601356985591
C        -0.70369570428684   -2.82416301925388   -2.94281661551410
C        -4.14428517980955   -4.14762572435349   -3.91346792771818
C        -4.07197214424800   -3.87298586039052   -5.42197696126669
H        -3.10384041628911   -4.15033751383727   -5.82985963605486
H        -4.23364334416532   -2.81520332243370   -5.61878139997736
H        -4.83737695574996   -4.44317593416763   -5.94438787440191
C        -5.55900202616034   -3.81162794617835   -3.43456138797666
H        -5.79963265848217   -2.76920568154497   -3.62864070547978
H        -5.66899389006270   -4.01202340492000   -2.37157508822435
H        -6.27895745679752   -4.42794747433986   -3.96922102403969
C        -3.88910520082514   -5.63702601457365   -3.64263993877230
H        -2.92126402488877   -5.94937504056529   -4.02436911005127
H        -4.65517626993348   -6.24279697472737   -4.12212028140433
H        -3.91267251479398   -5.83301476187142   -2.57280068224005
C         0.72276735477162   -3.05036435128988   -3.36734061565941
H         0.74905613709726   -3.89176292743167   -4.08398486423385
H         1.08096067979625   -2.15465832178639   -3.88962489901083
N         1.63415940151595   -3.28213297339209   -2.25405825962914
C         2.97712513454255   -3.54893746110933   -2.74416309174442
H         3.27029035220244   -2.72735713213844   -3.40307393775913
H         2.99993633015816   -4.48441374979788   -3.33481679686167
C         3.96746172782215   -3.65329268896068   -1.58864138984255
H         4.96083587682353   -3.86969626531924   -1.98579982674730
H         4.00109649436570   -2.69467204715315   -1.07227467071364
C         3.53111728385603   -4.74133134813078   -0.61415204194005
H         4.19913005996988   -4.76780075121775    0.24847826426187
H         3.57651853591047   -5.71717712161171   -1.10528713648674
C         2.09971627376501   -4.46160176260739   -0.17132546220244
H         1.73902274731731   -5.25158314968090    0.48979308415160
H         2.06351428585837   -3.51550768931729    0.37056602377362
C         1.19000596373864   -4.36425121876286   -1.39066282762323
H         1.18881944207411   -5.32959530255299   -1.93069718678582
H         0.16574657214517   -4.15550024532430   -1.07373149534166
N        -1.87930831786870    0.06104755681686    0.04336009808308
C        -2.70084926016727   -0.67347290809938   -0.63058398041143
H        -3.76117412431053   -0.51878307830855   -0.43784606881922
O        -2.52320097366582    0.93918609950814    0.89871042563958
H        -1.84129095375436    1.52710938809443    1.32971798917834
O         0.01585216221008    1.22997772250969    1.36670147446570
C         0.98832948478080    1.86192786717862    1.93883801751722
C         2.34970656906389    1.64865706232999    1.60643718007686
C         3.36315713179586    2.38148066541290    2.24547917873353
H         4.37924991702839    2.17615537743091    1.94975127712996
C         3.08041853186517    3.32431158985338    3.20481766272454
C         1.72982850288457    3.52128141214923    3.53230412128128
H         1.47148150743205    4.25123258288655    4.28600591638145
C         0.70370611513185    2.82415216900755    2.94282465318890
C         4.14429167017861    4.14766513646336    3.91342307342659
C         4.07200567701900    3.87303315417753    5.42192531876270
H         3.10388810726182    4.15035314893224    5.82983310430781
H         4.23370765619908    2.81526640243010    5.61870479089215
H         4.83740723820340    4.44323378882437    5.94430891910211
C         5.55900830968633    3.81170158356981    3.43448160671098
H         5.79967154937854    2.76928885667321    3.62856519400159
H         5.66896959164400    4.01209406667629    2.37148965682370
H         6.27896709128588    4.42804012357887    3.96911570305673
C         3.88906835669697    5.63706025263371    3.64259604772666
H         2.92122533155219    5.94937991669240    4.02432058880480
H         4.65512221184912    6.24285164719032    4.12209154115878
H         3.91263096901430    5.83306727298080    2.57276960004066
C        -0.72275517910519    3.05033834601423    3.36736312190220
H        -0.74904530749663    3.89173554734811    4.08400876890631
H        -1.08093876758749    2.15462795574669    3.88964579508965
N        -1.63415810650827    3.28210282524508    2.25408914979935
C        -2.97712201338729    3.54889657502592    2.74420539641410
H        -3.27027481126528    2.72731230341889    3.40311600410255
H        -2.99993697396158    4.48437096633539    3.33486210345078
C        -3.96746945106369    3.65324787244141    1.58869289601927
H        -4.96084264147805    3.86964121751551    1.98586031082510
H        -4.00109959329617    2.69462925945164    1.07232180949433
C        -3.53114136640785    4.74129343071588    0.61420418420981
H        -4.19916141180097    4.76776200311000   -0.24841998202996
H        -3.57654615147450    5.71713745230696    1.10534208790882
C        -2.09974194947850    4.46157697540206    0.17136437991149
H        -1.73906041134338    5.25156452865849   -0.48975328766438
H        -2.06353689352885    3.51548511570842   -0.37053125454564
C        -1.19002136235037    4.36422749999789    1.39069344237854
H        -1.18883727880715    5.32957036062313    1.93072995154584
H        -0.16576385873398    4.15548502873137    1.07375177579707
N         1.87931846089730   -0.06106730734817   -0.04334161485765
C         2.70085901960776    0.67346646325858    0.63058843237891
H         3.76118348785053    0.51878157476900    0.43784548805054
O         2.52321030165514   -0.93921321018756   -0.89868486304369
H         1.84129929574924   -1.52713928038468   -1.32968659315345

