123
CSD_code = MIMVEK | q = 0 | S = 0 | Stoichiometry = C48H62N4NiO8 | MND = 6
Ni        7.16820338461540    1.90999137685406    2.75207112255591
O         6.48634839784936    3.75531527344405    3.52153909615895
C         5.32457083267176    4.19855095990639    3.24878727445604
C         4.53946841297967    3.78908935322786    2.13289646099477
C         3.26870313577009    4.33537358808085    1.93140822518663
H         2.71561010990265    3.97924760287410    1.07671135689321
C         2.71165410663209    5.27358201172391    2.77780278757539
C         3.48993276469015    5.69683044099572    3.86079035099985
H         3.10955291760138    6.45419001142580    4.53319277253517
C         4.74512685361871    5.19161343527334    4.09436677081562
C         1.33453970433552    5.88108211308345    2.55952325223191
C         1.50507340772442    7.35048914906270    2.14715186478206
H         2.03269096138444    7.91140560863587    2.91474171662932
H         0.53393557803796    7.81494822359935    1.98707087260202
H         2.07815639174923    7.41738043387212    1.22487453731681
C         0.54741393315124    5.15372120567572    1.46646211745390
H         0.45144057728206    4.09707209150551    1.70539449993113
H         1.02981688420201    5.25930553128261    0.49791147223132
H        -0.45099252879911    5.58039387319678    1.38946224346344
C         0.51574012224637    5.80093132418326    3.85536005286822
H         0.47037691010458    4.77068814341775    4.20001584764773
H        -0.49816851288586    6.15537819567452    3.67997643891146
H         0.94960226458094    6.41089474200435    4.64313599311989
C         5.03591828387885    2.82085637271124    1.20319583083038
H         4.46861670920831    2.69689731630340    0.27991206631914
N         6.08059684979119    2.08581222482308    1.33947397377938
O         6.34444119673261    1.30001854373219    0.23547730714539
H         7.05411954077270    0.63048046786531    0.47835158544890
C         5.60834057725293    5.61147713486509    5.24551442259314
H         5.31718525512935    6.58457026515846    5.65005008235111
H         6.63769242744934    5.65713831327001    4.88111347157369
N         5.56860578268019    4.60121534655526    6.33725674615297
H         5.39292169644091    3.60932939584962    5.90399093425978
C         6.84114241356624    4.53483849784773    7.07450582158929
H         7.03676708413140    5.51682914363285    7.51995770796714
H         7.62908159455271    4.29688384583177    6.35834509703203
C         6.79548422473018    3.45681774177369    8.14895779009689
H         7.74373204872586    3.45474358047298    8.68658382424090
H         6.67687206342281    2.48765412008379    7.66552031048384
C         5.63232639682683    3.69961741046239    9.10329837828856
H         5.58204682466335    2.90119368122658    9.84321614929815
H         5.77217482418543    4.64374673565779    9.63690633462630
C         4.34354876036696    3.74402201223341    8.29120410726759
H         4.21069686567719    2.78501179922440    7.78932910207128
H         3.48177506345840    3.92761604581523    8.93398632435954
C         4.43365614140109    4.84251977036796    7.24023907293159
H         4.57138777502212    5.81685222821853    7.72380546634753
H         3.52559899817584    4.87383048892229    6.63395847015181
O         8.83266922883454    2.23881640889400    1.49099162375202
C         9.97980418244083    1.76363517129047    1.77177481022541
C        10.39576332965557    1.35750908652462    3.07230913050858
C        11.67891717849294    0.83864679014737    3.26789032526103
H        11.93436393690447    0.53715985269621    4.27143590298024
C        12.59253884080908    0.68830316890906    2.24341778803603
C        12.19665211306472    1.10989739047850    0.96933181184007
H        12.88926169786419    1.04227510821960    0.14098454596020
C        10.94867866885699    1.63098103889451    0.73217205378987
C         9.51489281573739    1.47563404484791    4.19411368422135
H         9.95866535652858    1.32709806086331    5.17933554357594
N         8.25854742619722    1.74169731511116    4.16335326113225
O         7.69402404763046    1.86377480374672    5.41734150341139
H         6.69389765254720    1.88674562518730    5.31959337673305
C        13.99336217086807    0.13273582313440    2.44877853813217
C        14.18018380938528   -0.46591677930850    3.84523461574126
H        14.08967180121279    0.29627865445138    4.61521584139827
H        15.17340913742241   -0.90396864284898    3.92534925800791
H        13.44526549607008   -1.24690151149904    4.02626302368640
C        14.27058735361087   -0.97669309858739    1.42479520222949
H        14.28780494383748   -0.59051574418660    0.40913689147918
H        13.50039403965123   -1.74134866125797    1.49160566426102
H        15.23699590397985   -1.43624628180244    1.62300402206053
C        15.00708132943681    1.27122902194514    2.26296582707318
H        14.82483950406913    2.05860130421370    2.99118517429792
H        14.92792215610685    1.70475550426071    1.26901288566849
H        16.02179078864461    0.90160460672881    2.39780239533427
C        10.48265158027733    2.08899014442758   -0.61673390875829
H        11.31462087406158    2.30791028978887   -1.29142415666330
H         9.88401187709949    2.99080047617985   -0.46571089156772
N         9.60021105255980    1.07164249523427   -1.24972691931751
H         9.07514872225995    0.51293185405109   -0.46641883815801
C         8.57453093163042    1.68802017708218   -2.10726330053049
H         9.07776938377511    2.25161021496532   -2.90106414460828
H         7.99108514755581    2.37222494229256   -1.48933481371402
C         7.65024904864013    0.63319211872692   -2.70030665158529
H         7.10960351877437    0.14726797655669   -1.88875198297965
H         6.92308580186879    1.12524162585156   -3.34636635206372
C         8.45000309534136   -0.40525665998209   -3.47791974551285
H         7.78541678399771   -1.17877522370383   -3.86199504083310
H         8.94873704805158    0.06301583607499   -4.33095350907157
C         9.48303411427228   -1.01949417268387   -2.54090389291287
H        10.08899749354340   -1.76319009560898   -3.05981328473782
H         8.96361453249782   -1.50356965228316   -1.71320979787398
C        10.38844217291534    0.07140306473256   -1.98455857895164
H        11.12166095723246   -0.34944986067265   -1.29287974362725
H        10.91898292602014    0.57444296882082   -2.80162104955839
O         5.03297213383115    2.18534739631519    5.61664993998805
O         5.31249613069858    1.09155489078791    3.71283788219157
C         4.59180929877452    1.65743961813817    4.54115368661582
C         3.11188352502459    1.71832275120825    4.28323951028514
C         2.62007017033942    1.24277456094248    3.07234105562868
H         3.31847510648331    0.82279488415635    2.36461765748601
C         1.26904156541767    1.30968734481442    2.79488858258468
H         0.89131753223910    0.94434318601457    1.85025859856461
C         0.39377618289553    1.83949736052084    3.73000279687068
H        -0.66464582753915    1.88927039556381    3.51525815716966
C         0.87560347548829    2.30068446982884    4.94373295437397
H         0.19162228621657    2.69798486171371    5.68153062065633
C         2.23025637776696    2.24683777993734    5.21656237428659
H         2.60920530919961    2.60051542742240    6.16356002353815
O         8.34078173343127   -0.49121617001207    0.36828915530652
O         7.67897377405547   -0.25630713006521    2.46744121916245
C         8.43553904797955   -0.73681620946815    1.61750284720222
C         9.51848256317869   -1.67702040806248    2.06877696539873
C         9.71105436650140   -1.87723880451526    3.43151009907189
H         9.05797618589284   -1.36608581422386    4.12232977029042
C        10.71523131996188   -2.71368352093722    3.87738170584878
H        10.86553368427182   -2.86239204064749    4.93746684262503
C        11.52815582597401   -3.36948744342019    2.96618142757646
H        12.31246220750329   -4.02726982430090    3.31407294611844
C        11.33161177418971   -3.18577485866701    1.60760811410252
H        11.95399733254543   -3.71024927994932    0.89515836076698
C        10.33511207932232   -2.33747379060177    1.16065718697041
H        10.17513685849007   -2.19553338518061    0.10245391690814

