43
CSD_code = MIMYMO | q = 0 | S = 0 | Stoichiometry = C14H20MoN4O4 | MND = 6
Mo        0.72057943265380    2.36252717784690    2.80405414778291
O        -2.29256196029257    2.16772790221903    2.12057898331547
O         3.72184258221836    2.02233943126042    3.48227159645241
O         0.00480727167749    0.08856938978876    4.76790591174308
O         1.33424877307814    0.08252799527921    0.81285262462396
N        -0.55817405751031    4.95273443059354    4.10625268575596
N         0.58550048107891    3.87788648506238    5.56939753975105
N         2.12051604885717    4.90279043859009    1.52912038568842
N         0.92811559796223    3.89869304467903    0.05468716780039
C        -1.17803458050949    2.32171486752917    2.34329122728141
C         2.61513541960354    2.22958041600421    3.26386444712050
C         0.27324992722935    0.96169297212644    4.07514394373312
C         1.10361301021941    0.95783892180754    1.51639714172214
C         0.23501732824898    3.89056175350986    4.28104853330330
C         1.27706690699855    3.88198566680469    1.34339913050800
C        -0.82965699536530    5.70451338693080    5.32416569724476
C        -0.02600482540333    4.93379109901069    6.36641049191200
C         2.43115626566378    5.65102232976805    0.31840407720030
C         1.59246829484890    4.93018440034328   -0.73190164105591
C        -1.17227853758913    5.40907645606363    2.89745058692165
C         1.40858495506018    2.93009783444066    6.25791308668203
C         2.75512069020928    5.31662845088168    2.74264478979930
C         0.06091740923512    2.99860095795643   -0.64361624250391
H        -1.90457500401002    5.71200003113053    5.53580203727017
H        -0.49662121533105    6.74317178294068    5.21226546693141
H         0.74783572752502    5.54390577576954    6.84603945279950
H        -0.65463631818066    4.50034496161751    7.15194141483003
H         2.14963419493346    6.70383846570277    0.43905414478571
H         3.50554839935707    5.60722097224910    0.10846423680662
H         0.85067089470108    5.58200213253936   -1.20726067280964
H         2.20053509931766    4.47317236143413   -1.52028044687508
H        -0.82561617363337    4.80073559049399    2.06505918245111
H        -2.26267808242678    5.33533969782655    2.96561781656060
H        -0.90940510134495    6.45716702189114    2.71734624627492
H         1.86130787523474    2.24992316544739    5.54095063386011
H         0.81523442776574    2.34919125475389    6.97095833561776
H         2.19629118450027    3.45340697064418    6.80866711479129
H         2.37444331873746    4.72149063738437    3.56970567992715
H         3.84025851716323    5.18542887916913    2.67643785819005
H         2.54795947573950    6.37586911870206    2.92995680505590
H        -0.42757750534347    2.33634518124148    0.06659033931788
H         0.62666489597923    2.39421161860110   -1.35958648484395
H        -0.69780404886144    3.56504857196394   -1.19236547372629

