57
CSD_code = MINDAO | q = 0 | S = 0 | Stoichiometry = C19H27N2O5PSi2W | MND = 6
W         1.56609382246474   13.04507528083233    2.27502343385532
P         1.24442102807559   10.82959124086478    3.29597774965163
Si        0.98119927847535    7.94439519599876    2.23790486876174
Si       -1.53531795026534    9.59127003167332    3.74990560707227
N         2.58026635593303   10.02250913802978    4.07183550726862
N         2.52574807812845    9.99917970043118    7.21224774858644
O         2.00876195130913   15.87086133865611    1.01269601023366
O        -1.32147749326333   12.92037716499195    1.04713295895601
O         2.62863446636606   11.69942359468494   -0.35823958568411
O         4.42087725609844   12.97043412316069    3.58352209967006
O         0.57501496285752   14.37441423704513    4.94189410220666
C         1.84763648694503   14.83527040919585    1.47099502822053
C        -0.27473149168361   12.98191885928663    1.50564912775757
C         2.24668870712211   12.17684012897805    0.60661711712269
C         3.39764532703980   13.02314557450125    3.07955659449265
C         0.91159339593163   13.89826857228648    3.95733173456943
C         0.06147323530278    9.57357233807636    2.68454185005413
H        -0.23538603863197   10.00534507303244    1.72039727699535
C        -0.23386092699856    6.80152551034945    1.31641075749502
H        -0.95057768447334    6.35244328342277    1.99515874122057
H         0.30645347928920    5.99465198464319    0.83400508972761
H        -0.78837167460806    7.33007881960456    0.54895085022026
C         1.66220859197996    7.00570742562318    3.75232421732469
H         0.91895532897859    6.89258922971056    4.53407811171144
H         2.51598883951171    7.52332647908228    4.17534913331773
H         1.98765607514978    6.01191129734762    3.46005895977468
C         2.40729383220096    8.46048275552784    1.08505306304070
H         2.03679049540998    8.86310521391152    0.14613453829150
H         3.06405221320848    7.62883952826799    0.84832548912261
H         3.00835067206228    9.23194928651466    1.56053101358722
C        -2.98464747710190    8.92219499203883    2.70945102925100
H        -3.10826133943680    9.48410864565822    1.78918578718710
H        -3.91416350840436    8.99575087300701    3.26414606298175
H        -2.84393632542740    7.88095728983441    2.44271124119946
C        -1.92636239482624   11.40085549651874    4.21498511528431
H        -2.39494916757838   11.92317220344026    3.38588447904601
H        -1.02146352925878   11.94927016795631    4.46979302301827
H        -2.60531301034786   11.46438286633718    5.06061179236504
C        -1.34627155776138    8.52720578833379    5.32222468380706
H        -0.41597970905236    8.72414654796465    5.84480254837656
H        -1.37949380158857    7.46961415825941    5.08100663827539
H        -2.15846303258895    8.72674478566099    6.01432427020804
C         1.72354098670799   10.45141578023529    4.95338431034078
C         1.58706560766626   10.51178538420454    6.33647189685449
C         0.56313094590292   11.07391189946800    7.10114867757958
H        -0.31266002565392   11.55217799781177    6.71179786882674
C         0.89863776798282   10.89159665531765    8.43581561850610
H         0.33104794753505   11.20514629338997    9.28923462658680
C         2.11678014970605   10.22670752124966    8.47654079655936
C         3.74657456299393    9.34500237538880    6.83468227329262
H         3.86178209109033    9.40342004713056    5.75389317443072
H         3.72799287266900    8.29500846258597    7.13677388646419
H         4.59986944371636    9.83066354527523    7.31158153250797
C         2.91301571403256    9.79985768993751    9.65388095913056
H         3.08703482008133    8.72381329522653    9.63485657272391
H         2.38513588969217   10.05355093038743   10.56825178004658
H         3.88447545932568   10.29513549163685    9.66359016051302

