49
CSD_code = MINGIC | q = 0 | S = 0 | Stoichiometry = C15H30IrP3 | MND = 6
C        12.34613464087106   -1.93776426506280   12.75586286702532
H        13.04928281243534   -2.02939934929174   11.93004183810733
H        11.63261699553911   -1.14593301603850   12.53431451191290
H        11.81587204892163   -2.88173189113454   12.88447160513552
C        14.33760132864183   -2.97139456832961   14.46524636507269
H        13.79437344029150   -3.89836739993812   14.28100035887182
H        14.74615742403331   -2.96910337297910   15.47460018288860
H        15.16035209191336   -2.87666717969294   13.75793837466957
C        11.93277320589369   -1.90890915504072   15.55023041170163
H        11.00599007351487   -1.44090602277197   15.19638638905680
H        11.76909622092388   -2.98799363767562   15.64065713286732
C        12.35271100840700   -1.27188036212982   16.84487803502635
C        11.85961609579660   -1.73951935098061   18.05398213082929
H        11.18812531926539   -2.58849163640919   18.06529953058795
C        12.21667067398938   -1.12582365736911   19.24070152538135
H        11.83043183363846   -1.48972950450909   20.18188696245306
C        13.07407243591689   -0.04125554932474   19.20936129754017
H        13.36208569700282    0.44641498893542   20.13190543395882
C        13.57486369801096    0.42514652204170   18.00283595472202
C        13.22574491178435   -0.17786198315298   16.78705127164030
C        14.54323024187852    1.57527120631277   17.97363437350601
H        15.56473624491367    1.19582603584801   18.09837606129307
H        14.34578877375349    2.31708157792771   18.75473808945811
C        15.97526335335199    3.32652469451981   16.26447561779133
H        16.02940817927829    3.93546298341954   17.16727811247556
H        15.98256430221188    3.97673564640108   15.39010775523507
H        16.83552234361639    2.66021987546873   16.22121476479234
C        13.17544182891278    3.60490989315260   16.52975130224537
H        12.24644797381827    3.10525540024325   16.80082148313866
H        13.01961165872123    4.14087793925025   15.59473200394667
H        13.46921186992037    4.30289525372143   17.31405544812716
C        16.66636608136848    1.57131138822572   12.85410163538228
H        16.94351217342060    2.00119688933033   11.89159168831070
H        17.12321640933907    0.58969357410503   12.96666841742195
H        17.02457304515324    2.20839083787708   13.66010729401724
C        14.31028088398577    3.07310973441080   12.52816546313770
H        14.77951374828505    3.39142339645672   11.59716948512263
H        14.56903130410942    3.76663769857254   13.32720118780909
H        13.22760309898901    3.06905853791708   12.41503429527565
C        14.52277788776514    0.52796237714915   11.40384946378901
H        13.44714392473049    0.46320785126285   11.24991506640511
H        14.93657037931587   -0.47875681196661   11.45091025471389
H        14.98013715588176    1.07263631574584   10.57737950150078
P        13.23183048641082   -1.51516119137818   14.31351689290488
P        14.44589208127684    2.30244192002654   16.29210174401046
P        14.84420243492861    1.37863521989791   13.00131574073962
Ir       13.97919707072574    0.52041672747832   14.97804342531971
H        15.37603667764483   -0.06995720553471   15.36827519162516
H        12.56361642938160    1.09186262556950   14.61591606115762

