51
CSD_code = MINHEW | q = 1 | S = 0 | Stoichiometry = C27H20MoO2P(1+) | MND = 10
Mo       -3.23082116678486    3.56414995920588    2.32838430702036
C        -3.78550117628592    4.10515404345131    4.45604298528658
C        -4.77094017958514    4.75082517904541    3.64928803813404
H        -5.80094467145440    4.58112597889850    3.95696554215012
C        -4.57342093309099    5.51845334762105    2.50781529816880
H        -5.47407693909036    5.87120359726656    2.01109275995717
C        -3.35547534885947    5.86312554293584    1.86578230853943
H        -3.45804375963104    6.44488362019268    0.95368180674036
C        -2.04326799573337    5.61603547217597    2.29233783538832
H        -1.25112756637758    6.02130489075913    1.66993229047136
C        -1.62348462169844    4.88273120793823    3.42334029568181
H        -0.54613465133654    4.79644176879974    3.54242435661202
C        -2.38577011418764    4.24167735277865    4.41195299822676
H        -1.83281489245667    3.71832698916756    5.18875964401613
C        -4.32920959665962    3.11858147784459    5.42115238140272
C        -4.60398651580560    3.41409341281025    6.74859001758906
H        -4.40282131656456    4.40384855250206    7.13211261289452
C        -5.14071149268297    2.43735929235732    7.57185460914158
H        -5.35213342988294    2.66992403293581    8.60375901074563
C        -5.41248809128550    1.17055463625911    7.07716468645475
H        -5.83744876996385    0.41976118357457    7.72483449350869
C        -5.13850890476153    0.86572819228851    5.75559471261923
H        -5.34647832234356   -0.11819702707877    5.35993355758687
C        -4.58629039185067    1.83634389626597    4.92644436131438
C        -3.99142738578724    3.08810658240469    0.59865326480645
O        -4.42734258558970    2.79593927606534   -0.41016445262905
C        -1.74876852564338    2.47884576101755    1.69218126172590
O        -0.85817617345653    1.86402082141187    1.34419744568125
P        -4.18249024923561    1.52649170253222    3.18232702290955
C        -3.07454172093226    0.10557565436644    3.16059083908267
C        -2.38382543845100   -0.34867429897708    4.27799334950904
H        -2.54724144974117    0.11024716079529    5.24363041729354
C        -1.49029279752520   -1.39857536442754    4.14454416832038
H        -0.95593142541942   -1.75887986056734    5.01032001616625
C        -1.27980691269666   -1.98267483396477    2.90661043108347
H        -0.58194758912835   -2.79980367970655    2.81021341961262
C        -1.95706652525054   -1.51799746873339    1.78750051828082
H        -1.78483850027662   -1.97061792430309    0.82333617120508
C        -2.84874471536922   -0.47099771298041    1.90913601034094
H        -3.38362626308886   -0.08685514655517    1.04581087264904
C        -5.73681316207355    0.90816320933482    2.49520146400495
C        -6.06601090413233   -0.44435310706120    2.55013074816945
H        -5.36552301068831   -1.15629054605052    2.96467218587281
C        -7.28217219019275   -0.87358462124637    2.05007039243963
H        -7.53398130961977   -1.92254881868078    2.08454617141493
C        -8.17146263765335    0.03692888916862    1.50174534395886
H        -9.11608918443749   -0.30414393614825    1.10736168459465
C        -7.84841087869165    1.38423140092771    1.45262808789989
H        -8.54146213690396    2.09123208829690    1.02270718685800
C        -6.63452367788706    1.82145851788329    1.94924609001353
H        -6.37028180181518    2.87261965520423    1.90756897908812

