157
CSD_code = MINLUQ | q = 1 | S = 0 | Stoichiometry = C74H60F6LaO10P4S2(1+) | MND = 7
La        7.43927503642110   15.99498129713933   23.09601119811521
P         5.52707418258015   13.93198754314791   25.59237039063344
P         8.39559087056509   13.03162013973680   21.13069277383240
P         9.87733275959877   18.71669524401898   22.39502810840233
P         5.08483116387857   18.77403761176856   23.42966589878911
O         6.31857041395361   14.53329882582900   24.47082078631527
O         8.44513014189195   14.34861587761223   21.85353001294331
O         8.61949126675933   17.97854139102133   22.74245372080599
O         5.74400898948643   17.45407426512320   23.18977185304583
S         6.38013746599598   15.45367720076289   20.51737979881637
O         5.79759973596700   14.88734524124108   21.71682919897912
O         7.29284970959139   16.54614994897617   20.80924152581932
O         6.79336143847562   14.54610857220672   19.49797364086432
S         8.35811812628997   15.66077147608504   25.72469659433404
O         8.94976311383714   15.00463464685009   24.56514124826190
O         8.00870586088738   14.83680883898953   26.82932139619656
O         7.46014306677473   16.73212378650111   25.34618834695989
C         4.89896332910299   16.36903635546278   19.81033134714697
F         5.20161193925583   17.15103484351982   18.77371723603017
F         4.40284948574576   17.15411032092561   20.77676769374403
F         3.92867103084535   15.53855677230078   19.43137402796628
C         9.84985192346105   16.70999448267797   26.18685476060907
F         9.64666954111473   17.64863794677162   27.10822153855892
F        10.10344902577102   17.34775311475328   25.01815628491157
F        10.95573620698538   16.04497368344723   26.51305334356511
C         3.81475385048138   13.64657832466269   25.03937336237244
C         2.78749454199373   13.41026768860078   25.94640345801874
H         2.99213834843310   13.42720579296405   27.00779046812833
C         1.50317172622795   13.17609182202049   25.48854849496515
H         0.70641758015615   12.98752296445618   26.19236850697041
C         1.23825900522435   13.18756610211534   24.12728712385096
H         0.23496387828136   12.99994070905952   23.77423589605050
C         2.25506702755221   13.45252264541337   23.22364364243287
H         2.04939829856423   13.48127638421802   22.16392622798860
C         3.54337687337486   13.68267235963411   23.67746827573557
H         4.34163983773448   13.90143713976985   22.98308271272418
C         6.23646241898321   12.33290765508024   26.07816451590527
C         5.48586201326555   11.36760715791633   26.73920284807827
H         4.45806883154611   11.56922999875637   27.00223106211784
C         6.05379805337610   10.14426306709786   27.05009226689977
H         5.47048062312569    9.39640342753549   27.56591795414717
C         7.36686567750920    9.87838612156152   26.69595082879021
H         7.80552983109007    8.92193426332295   26.93674828419487
C         8.11600118298493   10.83821165913903   26.03412903191111
H         9.13787593332336   10.63032381391160   25.75431608473780
C         7.55455410434757   12.06521234876894   25.72607052856889
H         8.13096897998680   12.83141449144167   25.22844052429229
C         5.30718207110620   15.00593693531324   27.04014920607005
C         5.47719436759629   14.54445496040862   28.33732050694267
H         5.81222224802783   13.53214923545886   28.50537858055430
C         5.24150969216016   15.39369040093743   29.40384367519970
H         5.37981808505309   15.03982205518090   30.41436250383751
C         4.82884724291320   16.69586721334539   29.17438653122075
H         4.64472569089559   17.35744291933479   30.00753002380862
C         4.65066717685166   17.15234624102413   27.87812687305104
H         4.32595781249429   18.16629155990114   27.70346661073367
C         4.88588442018521   16.30848643450468   26.80787135170486
H         4.76200428668309   16.65619578858145   25.78897369292806
C         6.77256338284974   12.21064742418174   21.18250891344958
C         5.97382568256089   11.91667318179289   20.08791276481971
H         6.28546509281790   12.21690756493366   19.10031341260961
C         4.76420396255321   11.26974432831099   20.28253384214551
H         4.13676501658622   11.04508254804274   19.43307170282825
C         4.35817957151595   10.90716239623606   21.55668034624814
H         3.41459147611736   10.40206765493476   21.69954533522645
C         5.16358628038044   11.18924734018326   22.64888955938846
H         4.85608863102038   10.90129027278504   23.64420206063991
C         6.37007381575537   11.83803173861451   22.46057272321430
H         7.01223147417007   12.06050068591721   23.30266839919039
C         9.13327382567680   13.17667568354128   19.48272407214647
C         9.07793015504874   12.16107522465448   18.53881910726772
H         8.54407212380386   11.24776167089757   18.75331230225096
C         9.70142213526395   12.32763755557953   17.31423544441634
H         9.65264844339980   11.54194979191254   16.57531225668403
C        10.38447358347068   13.49967417845074   17.03357200784546
H        10.86663979483024   13.62525392878150   16.07585934169926
C        10.44644385793275   14.51087615731063   17.97943693706548
H        10.97944383496160   15.42493409712101   17.76197341307470
C         9.82381812777711   14.34908367874245   19.20313882101074
H         9.84819456604693   15.13177064737441   19.94842497885842
C         9.45832969271585   11.85652517286365   22.03449802026378
C         9.55540820312625   10.52595641172036   21.64598998812356
H         8.97711866924209   10.16947309743389   20.80664360159093
C        10.38071933419156    9.66037764563290   22.34025529063227
H        10.45547700934664    8.62704091330970   22.03700758460896
C        11.11166905885707   10.11847581773931   23.42591221588862
H        11.75736569984471    9.44072365312886   23.96411073002272
C        11.00820806396427   11.44170485911344   23.82301669228987
H        11.56957765202586   11.79987299908105   24.67371139385181
C        10.18275539182359   12.31090646949878   23.12856978975459
H        10.07620289076054   13.33951081908289   23.44444053932478
C        11.31746204640953   17.61495171708264   22.30791691495568
C        12.59685410668883   18.11245826318657   22.08610583789171
H        12.75506790560162   19.18040966650831   22.03509602251065
C        13.65434254331197   17.23474936241046   21.92824152665722
H        14.65144093089471   17.61548177899263   21.76702673366002
C        13.43166809098860   15.86643302833221   21.96687785131692
H        14.25828472775596   15.18489545578643   21.83560915577632
C        12.15241513820724   15.37022428557811   22.16545405552666
H        11.98006620970155   14.30408874861592   22.17839421548073
C        11.09197852579749   16.24468577794357   22.33887276795089
H        10.07641659357373   15.87850985732662   22.50319045959628
C         9.83772925766870   19.43221827936665   20.72164547092484
C        10.31588067692762   20.70321185424186   20.43204334952141
H        10.66086748558608   21.34630180287912   21.22885905910588
C        10.34162132684719   21.14439316396647   19.11994899072942
H        10.70684878366599   22.13474047585024   18.89354854983777
C         9.90680045520409   20.31533769136974   18.09824284405692
H         9.93262585380076   20.66263717776836   17.07634402710788
C         9.43904365876548   19.04168961565911   18.38620989398154
H         9.09752678617060   18.39530679850786   17.59162053405048
C         9.40919281489004   18.59639473341065   19.69601099560186
H         9.02593221448399   17.61558184136999   19.93812150316912
C        10.13590383987421   20.08522949612263   23.56219852793380
C         9.16227756280786   21.07940908958705   23.54356368213588
H         8.35883258893528   21.01529542029591   22.82119649633272
C         9.22963061701340   22.12952558880236   24.43988830172338
H         8.47367687224451   22.89994494621858   24.42679498847246
C        10.27040870948539   22.18844615105316   25.35459080255936
H        10.32547866706375   23.00763061653270   26.05528448324257
C        11.23972946480872   21.19879176649107   25.37269775678117
H        12.04728734394577   21.24767755842047   26.08739931791987
C        11.17537911772767   20.14302027375683   24.47782664489128
H        11.92565437196343   19.36658048936028   24.49203602683727
C         3.28461813581528   18.55560516411235   23.35116317139097
C         2.81659060764615   17.25510647357401   23.49951403986202
H         3.52989763858912   16.44679918639057   23.60283079302390
C         1.45601942419548   17.00638200220483   23.48745716023044
H         1.09394050007088   15.99611605024467   23.60615418457219
C         0.56357098952465   18.05366555977318   23.32026708200369
H        -0.49850209946136   17.86101719322149   23.30880424627837
C         1.03054866265788   19.34853481259920   23.15748289315640
H         0.33303251149626   20.16021635385717   23.01564673408592
C         2.39076069241505   19.60389333205091   23.17414367719108
H         2.75677212975799   20.61048932218058   23.03672287891579
C         5.62239427688372   20.05944723250435   22.26008061084136
C         5.37889868525789   21.40145381887019   22.53792528492967
H         4.88550835627397   21.67816487805206   23.45908833027207
C         5.78886228916802   22.37726866049907   21.64767953930948
H         5.60016866163256   23.41825972486643   21.86334376104720
C         6.44076844810289   22.01670322488918   20.47818144785020
H         6.75450611867185   22.77787240945603   19.78004600378845
C         6.69665568373331   20.68227197861576   20.20772132497717
H         7.20719205790212   20.40371468208815   19.29904881192057
C         6.29640025698505   19.70092548584060   21.10028497055885
H         6.51730931854891   18.66034526977748   20.91503401182786
C         5.51061478577690   19.49971958420583   25.04573435497957
C         6.86429408800376   19.54448596744548   25.35762186150333
H         7.57453229995461   19.11451939075020   24.66521886738306
C         7.27987781821309   20.12036126340524   26.54395045165136
H         8.32915706794086   20.14093316884779   26.79527482622586
C         6.34685221963627   20.67813710117610   27.40474506176786
H         6.67042213833879   21.13505388919423   28.32763838080915
C         4.99931858397941   20.65508554738568   27.08333617934653
H         4.27584173485745   21.09738924454962   27.75251822065119
C         4.57590919416095   20.06058225121760   25.90531792215362
H         3.52412739741569   20.02858228614297   25.65600715835277

