61
CSD_code = MINNUU | q = 1 | S = 0 | Stoichiometry = C30H23N6ORu(1+) | MND = 6
Ru        0.53172656676163    3.39610027103862    4.34926996947189
O        -0.39156444884955    3.95707812589507    6.10401805960917
N        -1.72972810823701    6.88107976504553    3.35349256493115
N        -0.62875892909816    4.79132422476238    3.38497152895190
N         1.38579406501427    2.63777280943138    2.71833104269076
N        -0.81470058639015    2.03439236106776    3.89111344072302
N         1.60433651436450    2.23217561885939    5.55072335680151
N         1.90577307178590    4.72158841542283    4.93415554505689
C        -0.52360679251534    5.21310812798387    6.37430325385857
C        -0.43289519785187    5.62071033900322    7.72675829290968
H        -0.25685443093869    4.84625029811379    8.45921858538355
C        -0.54342333119537    6.93501958016567    8.09397909220204
H        -0.44960774788608    7.21157109920231    9.13358125333488
C        -0.77232661233212    7.91862111658944    7.12966785113072
H        -0.85195907417690    8.95366553441966    7.42086474150304
C        -0.91212935873087    7.55595250794794    5.81561944867716
H        -1.11417079737229    8.29859148971742    5.06033412800004
C        -0.79054508436099    6.21770573724969    5.39733697512848
C        -1.04506927762322    5.93231263504784    4.00240081604607
C        -2.06345155827223    6.71518274252501    2.10001471660954
H        -2.60811878698574    7.52765991124558    1.63902774577730
C        -1.73577334076231    5.55014431226102    1.40783904481096
H        -2.02247683402326    5.38390316563569    0.38414356709133
C        -0.99936191667845    4.62000745111617    2.11140378219761
H        -0.68226990318624    3.70321477976466    1.62327432694050
C         2.55570122896858    3.00356390065093    2.18678155839983
H         3.04307548059842    3.85503173995892    2.64638852303640
C         3.13301149290191    2.35707025805266    1.11316918112671
H         4.07933658334516    2.69578786036723    0.72477544986327
C         2.47550104537867    1.26844255181625    0.54900709859255
H         2.90044604849862    0.73927199441056   -0.28834000114831
C         1.26390847678449    0.87995241661459    1.08680215068492
H         0.73274372814328    0.03843394986805    0.67374923862336
C         0.73326483276798    1.57866532268333    2.17076688478959
C        -0.53974811642989    1.26291500914020    2.81316891426761
C        -1.43010836425765    0.27716056583123    2.38639028192216
H        -1.20388136225526   -0.32465388160911    1.52177512302497
C        -2.60886828578349    0.08133398784004    3.08099729286716
H        -3.30974141509906   -0.67489259764657    2.76567925485055
C        -2.87188578090767    0.87538771502746    4.19208966250593
H        -3.77783117740181    0.75081592583168    4.76192329254996
C        -1.94956133912419    1.83633488037243    4.55888660791690
H        -2.10450487946843    2.47626487497787    5.42002141029134
C         1.50227293049810    0.91564316688222    5.72500533418149
H         0.96659329186219    0.36382777139412    4.96109033181794
C         2.04173623091859    0.25532162339136    6.81097207390673
H         1.92729384181139   -0.81192538993656    6.90660839284185
C         2.71560304110259    0.99549361389970    7.77608024213869
H         3.13273397984724    0.51552803617048    8.64673559715775
C         2.84622901048365    2.35796971293584    7.59378124634072
H         3.37208140882776    2.95270599565640    8.32182962310101
C         2.28572770475690    2.96027161735364    6.46624895969954
C         2.44118047267252    4.37316138565589    6.12767011473323
C         3.11169178482208    5.30728772098572    6.91805643236635
H         3.49923543697726    5.02533667215979    7.88251616855917
C         3.25972033189576    6.60330917879227    6.46410125185253
H         3.75673557759018    7.34323019132275    7.07033155569001
C         2.76713977050055    6.93018196573147    5.20623118295881
H         2.88201897165685    7.92203483602380    4.80201721551220
C         2.09906014025081    5.96100242188278    4.48441010214459
H         1.69284977640403    6.18660058600254    3.50523912099858

