25
CSD_code = MINNAZ | q = 0 | S = 0 | Stoichiometry = C6H12N4NiO2 | MND = 4
Ni        6.35718121682665    4.09832429086393    0.65096415765484
O         5.08228764783294    7.60642302085048    1.86299196002246
O         6.16117898392379    7.67924263323869   -0.94284056676980
N         5.94909936055631    2.89902434470356    2.24303414945364
N         5.68965572410956    5.42128800727862    1.71205936648233
N         6.54591054730029    5.47844267885882   -0.52428771068535
N         7.13587135086324    2.97783143889099   -0.85931468176486
C         4.89239813922901    3.58789773645827    3.02522991477094
C         5.24833912352900    5.07526383638894    3.05357087396774
C         5.55949217576716    6.67637637164203    1.23715477249350
C         6.11145478374649    6.71347108719705   -0.20186986667812
C         7.11985616269150    5.20014558401279   -1.83098313931736
C         6.85810198961136    3.71990842054052   -2.11447099772158
H         4.80805967843709    3.17202150366846    4.03714597482446
H         3.94371914389330    3.45119911506132    2.50026176697627
H         4.38739832090776    5.69578990984557    3.32500579810193
H         6.05032842806346    5.26338512528789    3.78261537958378
H         8.20060135475646    5.40427995408953   -1.82779639942355
H         6.65105297735946    5.84774481154325   -2.57948370162541
H         7.47516295948490    3.35023528960129   -2.94301853212901
H         5.80298911387553    3.57906268420805   -2.36091725798264
H         5.69238512619072    1.92203706360083    2.10605217669768
H         6.80789193131803    2.90989933588969    2.80074740446280
H         6.87030825942207    2.00020869374220   -0.97317776273452
H         8.14767550030390    2.99859706253717   -0.70217307866016

