175
CSD_code = MINSAD | q = 0 | S = 0 | Stoichiometry = C142H24N2O6W | MND = 8
W         6.24565720889982    4.18586374125366    7.80881671739402
O        -0.37177148500626    3.17795449667772    5.62151748483118
O         0.52048979870843    1.13070074682716    5.33133304817863
O         1.35407318952540    9.19254581092645    6.93728002393855
O         3.17401017752017   10.47592046578763    7.26394856021239
O         7.75751394846541    1.45924370008901    8.03510353470046
O         9.05803734918487    5.46872417732445    8.26990685072587
N         4.31649505261128    3.46370929454808    7.38347417407738
N         5.09278143666704    5.94451362021955    7.71242631124672
C         4.00034779921789    2.18168912591350    7.21745862651509
H         4.77738270315412    1.46637540622733    7.45667394395445
C         2.77698003938145    1.75697878174804    6.74389358256831
H         2.57758170160777    0.71102696099192    6.58271455791982
C         1.81351035096978    2.72092645123730    6.44325783947276
C         2.10216569105768    4.05247019398729    6.70574268449692
H         1.34825536485866    4.79349865902528    6.49601211004652
C         3.36926824136798    4.39827347665906    7.16822329488238
C         0.52558031383966    2.38764789318977    5.77311260765202
C        -0.58512763968004    0.73099585206250    4.52137997328233
H        -1.50546557167069    1.15323872213621    4.93773841912830
H        -0.60690212812673   -0.35842607540863    4.59058699210250
C        -0.40108966373461    1.18607694298259    3.07504319557609
H        -1.27150772752723    0.85920164853677    2.50382837574200
H        -0.37182062873942    2.27747306318947    3.05064845166887
C         0.87470446180825    0.62343064705390    2.45051828986672
H         0.84515777662776   -0.46786500095026    2.49154901541621
H         1.73858307940631    0.95395844630761    3.03211070160607
C         1.03679348491378    1.07396460813099    1.00485887966941
H         0.20088481468375    0.72827896103461    0.40078960840650
H         1.95566146769886    0.67375891463260    0.58319100774373
H         1.07749986293702    2.15940914412011    0.94492993003728
C         3.79303934275615    5.78268857129373    7.39003023356480
C         2.94196485225032    6.87344570284105    7.24046089420314
H         1.90074769331420    6.75577245746234    6.98814769145695
C         3.44156688886543    8.15784580080593    7.40556068308144
C         4.78927132190093    8.31219512897128    7.73207309347728
H         5.21489443665210    9.29300544507729    7.86123046026830
C         5.56155201698383    7.17873844961300    7.87838936589906
H         6.61416127139232    7.25914429255285    8.11885161745467
C         2.52916867785549    9.31345483366476    7.17889260579493
C         2.42557574846717   11.65461373838848    6.96331208902464
H         1.42799686486751   11.56562851987630    7.40538190290274
H         2.97644338394048   12.46777828082030    7.44005754961511
C         2.31692101269383   11.87196696044980    5.45588904258646
H         1.71890983317349   12.76810554014396    5.28312992914177
H         1.78761851958806   11.02352237219210    5.01718291095013
C         3.68740811316540   12.02135029250963    4.79756753345813
H         4.29538053503270   11.14362425594641    5.02857658795882
H         4.19331860425586   12.89545618235902    5.21401360050154
C         3.56964651084205   12.17175467043446    3.28650470402366
H         3.08524565523128   11.29974054641835    2.85245681230325
H         4.55400940760513   12.27564740893416    2.83657580556687
H         2.98153495292067   13.05136408875693    3.03453851992798
C         7.18519367145813    2.45399634383428    8.01343402107446
C         8.03392020469203    5.00663308281601    8.03528466629349
C         3.69423639480028    5.20670618976143    2.38403667767968
C         3.67295266712348    3.99811504871774    3.07274515546281
C         3.84325213416255    2.75949243283338    2.35760801777550
C         4.03141643582709    2.77180225197140    0.98315959841841
C         6.84509101019652    3.45453048522148    5.73873717378466
C         6.25347468963805    4.80009583032764    5.65315129188894
C         5.01411106419890    4.95492871020860    4.88053052569246
C         4.34075700735569    3.87597789796121    4.33736959165157
C         4.92539243247355    2.54986004213395    4.41245540799962
C         4.61548572233844    1.86808354887435    3.18605640391082
C         5.54792764267232    1.01667937425894    2.60343082506823
C         5.74692036621223    1.03205600034485    1.17710355078063
C         5.00319682357285    1.89320115307687    0.38117153658832
C         6.15267010922949    2.37025375765465    5.02649770140441
C         5.05390237123538    3.92286322111226   -0.76679419124285
C         4.06024564790734    4.02497082468127    0.27039572458730
C         5.63676480140336    2.60521002474545   -0.69832050593261
C         4.71907837216502    6.35799468038341    0.63517582618053
C         5.02794252146917    7.04657705983072    1.86316117162923
C         4.39517340415414    6.32929056919606    2.94210348770384
C         5.04827826896330    6.19747117299438    4.16208965769692
C         7.10989934142071    5.90310682297696    5.19844573233599
C         6.34689696357730    6.78365208779385    4.35652221481583
C         6.95323465782813    7.48177965901790    3.31831795217357
C         6.28224197629654    7.61020014758391    2.04797377679566
C         7.27799372217405    7.50880789360149    1.01082558981793
C         5.67852781778822    6.25797465819691   -0.36266875206468
C         8.56035680467365    7.31946442131531    1.64303137366426
C         9.49782660394953    6.47248101721457    1.06752998914750
C        10.26674249068219    5.57858427964531    1.89784503131616
C         9.19115758645406    5.78523198153272   -0.16023305561053
C        10.44137965199561    4.34120229523707    1.17839584637530
C         9.77437588143172    4.46762252684427   -0.09172380667020
C        10.41284354719825    3.13279433358864    1.86135488573291
C        10.20944101537376    3.11540860119225    3.28722161475590
C        10.03296292455017    4.30745118445746    3.98152463958390
C        10.06457078031713    5.56034705020492    3.27025128437248
C         9.09154205135281    6.43753205895307    3.87011278591721
C         8.45931700165238    5.73202008582482    4.95080613656817
C         9.04494385215897    4.40489025435289    5.02114984126662
C         8.25478212863186    3.31555154704373    5.33736327143164
C         8.42104892213177    2.09372268248654    4.60127972500351
C         9.38457308994236    1.98403812499076    3.60531259992387
C         7.12158881536111    1.50898892305896    4.40948328731084
C         6.82724481784175    0.83386702572262    3.23025595925123
C         7.82370452968792    0.72796835520278    2.19368851864016
C         9.07724276723561    1.29263777019934    2.37781073425595
C         7.15516872451492    0.85251666474521    0.92294016655653
C         9.71324580756582    2.00448753257517    1.29781210147591
C         9.06940185934370    2.12674046354718    0.07417424604071
C         7.76590224750346    1.54014309404200   -0.11670092678394
C         9.10062976869697    3.38153905208772   -0.63425634098723
C         6.99265052595216    2.43294280995751   -0.94261368719962
C         7.81764355974900    3.57053140752134   -1.26320446273654
C         7.25649094876718    4.83875748083902   -1.32940784769547
C         7.95652046703977    5.96703923664916   -0.76893032651899
C         6.98183526538867    6.84464946645065   -0.17158538222494
C         5.84880901241337    5.01804856297836   -1.07730691333766
C         3.89419452390326    5.21980904803538    0.95814607932042
C         8.35637785910938    7.30529727051943    3.06866673367197
C         5.27060775259221    3.89107432570683    9.79949447212645
C         6.53612092720823    4.60836032153503   10.02051397186804
C         7.56719824450911    3.92120523780963   10.81523012995954
C         6.18268259597427    1.90212197782834   10.99871125858820
C         5.13460274899906    2.54282795297291   10.36376528502099
C         5.93312051732378    1.06154356988204   12.13722951446385
C         7.01377029341982    1.24151252776265   13.07320159837522
C         7.93430685574288    2.19764659421660   12.51187351172082
C         8.57301521838229    3.11098873181045   13.34369125569586
C         8.30785370864248    3.10738638348198   14.75945939667972
C         7.41936727563450    2.18614324265557   15.29741117547252
C         7.87250632510313    6.53556846121499   13.95026252448267
C         6.76225897634634    1.23327818055853   14.43748857141580
C         5.41621815204214    1.04989504788083   14.92158373163769
C         4.37343299502616    0.87516182769822   14.02192379249400
C         4.63623346931690    0.87713826934827   12.60582842518592
C         3.54563507543776    1.54495040512341   11.95255104141936
C         3.79783068371899    2.36817114016989   10.86102704725340
C         4.02173447921896    4.57384719377215   10.16176883176630
C         3.10900359488875    3.62434400740031   10.73483138408412
C         2.19045081271159    4.01707853330519   11.70132882998697
C         2.16581997135609    5.38192867827421   12.14751423692225
C         3.06060845796187    6.29843673111156   11.60495896025835
C         3.99648577995825    5.88692753818957   10.59609842142261
C         6.93086643477041    6.94859137766661   14.96013741168840
C         5.24406340864099    6.59348140276667   10.82665272542603
C         5.06308319796735    7.43323703331622   11.97920432070023
C         3.71683966254558    7.25367863561715   12.46093815433839
C         3.45826884224916    7.25837821969743   13.82406204139586
C         2.53514775661421    6.30384102846924   14.38643993464427
C         4.53806616572111    7.44045129648368   14.76207936929701
C         5.23972399535601    1.89425541216098   16.07474484512191
C         6.47801364683700    2.59674552313604   16.30703460378787
C         8.53665393569246    5.32402300810812   14.07338676294584
C         6.68728615223330    6.13199303882940   16.05584331958973
C         8.28614892789747    4.47659768916350   15.21207496251746
C         7.37792922700496    4.87257456870619   16.18427730580192
C         6.45676625378886    3.91495181557161   16.74263535892878
C         5.83564839884408    7.61560245124470   14.30031440131318
C         8.71085916837690    4.47606281329083   12.92021581852162
C         7.35516635987242    6.94616954648976   12.66864108555816
C         8.20434642546847    4.86811022453850   11.68647709465572
C         7.51514257210297    6.12366570835546   11.55947365960610
C         7.42903300222627    2.61006313274498   11.23086866195429
C         2.60024039739904    1.95585270114878   12.96096195479167
C         5.19760053725108    4.58175687023345   16.95998494293173
C         5.33993228527800    5.95157546955174   16.53470932806156
C         4.28575837640648    6.59457361119177   15.89987309402342
C         4.02703952291246    2.53633009669461   16.28704610397647
C         3.11361577947169    1.54158661066760   14.24240880270553
C         2.94427042217060    2.35691405933226   15.35294064797607
C         2.25370961436444    3.61631067880630   15.22457683254861
C         2.91043839286119    4.57305243612176   16.07927006444916
C         4.00573158558042    3.90552195040277   16.73663314479811
C         6.10260205718532    7.61468202569737   12.88502842737284
C         3.04760778306352    5.89193284056112   15.66761641323093
C         1.93530774381463    3.16717702308753   12.83783518465988
C         1.90092532907602    5.38338886227819   13.56302149110140
C         1.75757768934399    4.01357169080533   13.99066976080832
C         6.45162384884256    5.95274227046056   10.60988824254525

