56
CSD_code = MINWUB | q = 0 | S = 0 | Stoichiometry = C17H32MoN6 | MND = 6
Mo        1.42077456862824    3.59301475567320   10.62571229094376
N         2.29361982214651    2.38861360408829   12.07066132900828
N         0.04451739440797    4.70333591066815    9.51298065280060
N        -0.40084817056696    2.92567370947497   11.57697003233942
N         1.64437782637334    5.11958869900374   11.79112819934075
N         1.44442834895267    2.18276399324393    9.28949435770584
N         3.46806184446142    4.18433823285350    9.63241355641810
H         3.79825234262557    3.24219564927743    9.43135827491529
C         3.43924047353736    1.72617539843766   12.37850880888955
H         4.35587537139403    1.91640199805894   11.84215171062286
C         3.23374939904641    0.83978925849815   13.40565190451004
H         3.95618427153174    0.17910089167797   13.84662797365970
C         1.87617890347422    0.96746489941668   13.77189491783797
H         1.36841743151798    0.43058256433740   14.55205957199565
C         1.33919088806541    1.91791213486259   12.93789989642226
C        -0.13250922790798    5.34418207267023    8.32953573142387
H         0.69123819325055    5.49889858727636    7.65477968964946
C        -1.44634925199528    5.70247492824417    8.15504819794142
H        -1.87310070603966    6.21163050215471    7.31141952386004
C        -2.13218011276150    5.26427404092834    9.30819848344014
H        -3.17922184763194    5.38419525532144    9.51881394535202
C        -1.19187955429188    4.66081031881069   10.10765901488776
C        -0.01981055804727    2.55313139653916   12.94774476259350
H        -0.75848159048053    1.87600675786057   13.40161954014096
H         0.00655751620183    3.46636795652870   13.55675752879093
C        -1.31668300016461    4.07025769602927   11.48002497263932
H        -1.01081136828611    4.81467045098232   12.22930417036343
H        -2.35707657588885    3.78008022066105   11.69061704458530
C        -1.02273486281184    1.77099999891943   10.94284724119574
H        -1.91450676924859    1.45520556826036   11.50325479061877
H        -0.31205058615856    0.94363909420532   10.91581451415375
H        -1.32577417484923    2.02918600486543    9.92916502230178
C         2.04405135184052    5.16650561201667   13.17868738056476
H         1.25812565702845    5.61278141877485   13.80972977601872
H         2.94160964919958    5.79370404727959   13.30502223407361
H         2.27497101431526    4.17101325949705   13.55303726114403
C         1.50783429550487    6.48779888855083   11.34354162875743
H         0.70706698610728    6.99664047056134   11.90334181242866
H         1.25797169970203    6.52149036955725   10.28609538925786
H         2.42924385059218    7.06659453179085   11.51517296162801
C         2.44557134818974    1.14393258095642    9.19825693012293
H         1.96841457193121    0.15928333565000    9.07102608982240
H         3.04833030260643    1.10476045424851   10.10390962247437
H         3.10384424669193    1.28812448526614    8.32287758926950
C         0.60048035955942    2.05631043911962    8.12277879216234
H         0.09016487256440    1.08066107321335    8.09771271738780
H         1.20394860962273    2.12169569568363    7.20184472425653
H        -0.14497263530272    2.84754277819202    8.09260143804254
C         3.42921017391970    4.90271126334988    8.36563196692727
H         4.42756101531321    4.98921225742630    7.91452488751752
H         3.03600231411027    5.90451473337021    8.53388761739926
H         2.77143718502520    4.37835862318412    7.67600900199105
C         4.44663626148552    4.79065326515560   10.52714233189201
H         5.45512074020686    4.77847825694344   10.09110602847406
H         4.45586425534378    4.25351822481773   11.47311733605335
H         4.16896563595732    5.82645138556563   10.71382683098734

