31
CSD_code = MINXIS | q = 0 | S = 0 | Stoichiometry = C9H16AuN5 | MND = 2
Au        5.34088230637080    1.74566095716321    9.78844499229830
C         3.55718322168655    1.74568677610222    8.92691449805482
C         1.35272201690393    1.74561965731613    8.60664486207097
H         0.31540917761049    1.74560438599506    8.86777877421643
C         1.94455744321321    1.74561400238203    7.39012778785113
H         1.50949923672525    1.74559092888825    6.41290432220616
N         2.35583317104796    1.74567001219268    9.53696339303320
N         3.29571996425203    1.74566192977857    7.60512487879149
N         7.09352080813386    1.74559281158770   10.58264011941639
N         7.57727379181933    1.74579472991402   11.64800985576822
C         4.30116653121372    1.74561906605765    6.56237342437653
H         5.26704192541241    1.74566081882864    7.08221383676214
C         2.15529091992870    1.74564044037636   10.97166944416811
H         3.16028239946239    1.74568406252296   11.41147876738572
C         1.41774891315320    0.48067254460865   11.40394129069207
H         0.40889646810357    0.45792100587235   10.99787274584659
H         1.35340628943694    0.44795213448343   12.48758559257624
H         1.95240654271407   -0.40324078568284   11.06353526457181
C         4.18566471223875    0.48057919058663    5.71530985572218
H         4.25259795152862   -0.40308278152727    6.34589549737159
H         4.99548905107576    0.44974948609236    4.99227288025225
H         3.24123302989476    0.45545310698517    5.17621365787514
N         8.13554054218060    1.74505701447571   12.63418197511104
C         1.41761336805668    3.01051568505052   11.40397764878471
H         0.40872786016123    3.03313045404841   10.99798259079075
H         1.35334584555704    3.04323939093346   12.48762654636311
H         1.95213364908654    3.89449006535715   11.06351318246136
C         4.18562836927865    3.01055546232906    5.71516248138950
H         4.25242982906416    3.89428630214704    6.34566561458784
H         4.99551323366570    3.04137455997231    4.99219291691299
H         3.24124143102183    3.03554658516144    5.17598130229233

