62
CSD_code = MINXAI | q = 0 | S = 0 | Stoichiometry = C21H35MoN5 | MND = 6
Mo       -1.35882871470261   20.23657982180076    8.52641729026120
N        -0.02798369694946   21.59684137950225    9.22661284378309
N        -2.14909956384719   19.63793627399396    6.76280988447677
N        -1.74037915080259   22.17872881457286    7.33065877015087
N         0.66416207203234   19.69520016732124    7.15518239220885
N        -2.65465014634345   19.97486836741500    9.84712577409461
C         0.97425488071845   16.23616523559074    6.61142718639523
H         1.69324011112175   15.44204200737030    6.41526679092598
H         0.64664451187588   16.64700569693383    5.66006247619646
H         0.10771946974255   15.80363858693802    7.10468278473614
C         1.60361956127852   17.32120469084056    7.49191703252542
H         1.97815901591871   16.85632067285595    8.40746207310614
H         2.46735471305967   17.74022851835511    6.97204122521917
C         0.62680547465073   18.41228463610179    7.85944961405622
C        -0.32803952050536   18.42538836853845    8.78809917722346
C        -0.56431193446276   17.26682699907812    9.72168946763266
H        -0.00934313091355   16.37904630389233    9.40729962908902
H        -1.62997208349789   17.01020378817404    9.72239368940440
C        -0.13885782599450   17.62788731487665   11.14555873350943
H        -0.35225088659815   16.81138460239099   11.83378140092134
H        -0.66758951697441   18.51860948795460   11.48183964311134
H         0.92978873277462   17.83123161265599   11.17320367390167
C         0.68853388503423   21.54418800223899   10.37624775616947
H         0.82916286977173   20.61002917447940   10.89342196662460
C         1.14434694077566   22.80012258257160   10.70710172564044
H         1.72390579258374   23.06588217500177   11.57058176768937
C         0.70295054836219   23.66972640715868    9.69192243761475
H         0.89332542428852   24.72364549766243    9.61452890102271
C        -0.01300783150467   22.89212391806067    8.80944652849526
C        -2.60879260707725   18.41210834300496    6.40806866339889
H        -2.35509402446445   17.54086034554098    6.98897798046068
C        -3.38280146231498   18.50821399518522    5.27444728446641
H        -3.89238544856962   17.70635335698082    4.77493353918415
C        -3.37693296850105   19.86467509927415    4.89626024737958
H        -3.86322343604337   20.30040641513534    4.04385637239375
C        -2.61408753767635   20.51979760625846    5.83667814122516
C        -0.66687240186270   23.16484971735946    7.49300028390378
H         0.05977934235963   23.02647342398166    6.67891146290287
H        -1.04486747232878   24.19712538504206    7.43097343672870
C        -2.10999365442037   21.92458561903517    5.93414230068007
H        -2.85583609249427   22.64874862136677    5.57255519198421
H        -1.21512734467546   22.03668067356931    5.30600929927837
C        -2.91793564142227   22.62756644439730    8.06326968327113
H        -3.29424313800288   23.57576072410135    7.64992672202576
H        -2.66487237411652   22.79045714852445    9.11301828644953
H        -3.71027904510611   21.88102132971324    7.98405771430181
C         1.90696040761228   20.40004328921808    7.47526028241133
H         2.77580996104257   19.92045182710012    7.00481548495599
H         2.05744234375627   20.40548223053358    8.55243783470020
H         1.85924637120753   21.43172829822129    7.12153374640263
C         0.60131910942312   19.53443387209411    5.70434942270384
H         1.49073754704971   19.02268868009842    5.31396009858573
H         0.54734477026853   20.51566170622292    5.22713327701802
H        -0.27989709385498   18.95805845987420    5.43062223273012
C        -2.61955283314392   20.54107050190721   11.17451145653792
H        -2.69066047153104   19.75951844797419   11.94526818498150
H        -3.46865322573698   21.22607904393229   11.32424607087898
H        -1.68942245649598   21.09729615396583   11.31717887784609
C        -3.83479077768958   19.16378629525046    9.66739944724752
H        -4.74627519638090   19.76630051383234    9.79896239629648
H        -3.86835171061313   18.34757896055179   10.40439287733305
H        -3.83765143908704   18.73399636642686    8.66280906314659

