56
CSD_code = MINYAL | q = 0 | S = 0 | Stoichiometry = C27H23AuN3OP | MND = 2
Au       10.41692074775594    1.50054953111975   13.46741915695837
P         9.45002719465321    1.94360171315608   11.45955148053072
C        11.29555719897500    1.51377506808559   15.27395781650676
C        11.54734319660042    2.63746773606864   16.06746413079510
N        12.50215907653453    1.01525064364114   17.09447373200852
N        11.92469542960924    0.54176839721119   15.98079914572558
H        11.98717222917584   -0.43912780226179   15.75797284590048
N        12.28723053052833    2.27103884732866   17.14322153025381
C        11.14978243573589    4.01478320237414   15.81966794487555
C        12.00582674844872    5.06433903411434   16.15626321957624
H        12.94319380351994    4.83374928907544   16.63865390088643
C         9.57645516519711    5.63420112261988   14.94792844947419
H         8.61870727046892    5.83001493801352   14.48877010084532
C         9.92980684680971    4.32583284082200   15.22983885813640
H         9.23012583763104    3.53401319956020   14.99968735313732
C        10.31780048875136    4.52683662705537   11.77887485325270
H        11.13287664320336    4.05616671412037   12.31375330590978
C        10.27606223573595    5.90159070589664   11.64060171812119
H        11.06361459423752    6.50708286926420   12.06324306793400
C         9.30247558757707    3.73990969064171   11.24248557186902
C         8.23673035630419    4.33866033676521   10.57767466487356
H         7.44207089978330    3.72919829436758   10.16861024278446
C        10.32339972963013    1.39741246924387    9.96438251655138
C        10.84118243753628    0.10426583104358    9.98826833885729
H        10.70135096705171   -0.50417606737831   10.87361066883154
C         7.34652036915612    0.60060015204951   10.10930600407973
H         8.05157616932957    0.35715108645249    9.32664383065674
C         7.75191151780270    1.35658739360231   11.20279549060564
C        11.66446077229476    6.36849464331558   15.87774824469355
H        12.32467484706562    7.18446832146966   16.12843596642859
C        10.44946819611768    6.66747824491874   15.25985093509177
O        10.21692132853680    7.99446453744960   15.00570157562328
C         9.21639434222681    6.49531318096920   10.97327878158386
H         9.18071317425525    7.56947077511212   10.86354177237036
C         8.19824856558285    5.71509814734572   10.44749537717397
H         7.37053785846477    6.18090866405702    9.93261227942139
C         8.96987311559642    8.36087524533513   14.47579887970823
H         8.79888600349991    7.91122173133909   13.49110807535421
H         8.99694596455280    9.44535493396822   14.37708074687076
H         8.14971254262417    8.08049702190852   15.14567119386928
C        11.70233112650850    0.41082211020772    7.77481312408581
H        12.23934165553164    0.02849237266589    6.91972513546245
C        11.20064963154601    1.70217280668398    7.75471034344582
H        11.34701397416799    2.32504489245836    6.88456392631539
C        11.52299494193894   -0.38936817373476    8.89263277094652
H        11.92036869770043   -1.39330401546110    8.91052406248841
C        10.51187595167386    2.20122589482232    8.84610730574060
H        10.12281277878016    3.20983364929236    8.83196091023478
C         6.03443868849446    0.16756949102834   10.02651617508550
H         5.71757264746095   -0.41657652538368    9.17501899443963
C         5.13025912309176    0.47948353436323   11.02816809307476
H         4.10849847716611    0.13789092333133   10.95695649796340
C         6.84400686562951    1.65640124007635   12.21718113359122
H         7.17760323834951    2.23200832102828   13.07208701882157
C         5.53557899754978    1.22465848716041   12.12541424936221
H         4.83194078590809    1.46225568032876   12.90927649061794

