65
CSD_code = MIPBEU | q = 0 | S = 0 | Stoichiometry = C29H29ClCuN4P | MND = 4
Cu        1.08269700956646    1.39541682872805    8.22852173750642
Cl        2.86300494932883    2.36345936082184    9.01745502263675
P        -0.71188216607970    2.74132465900953    7.85914881338172
N         0.20905491639689   -0.38598571381952    8.49899418173895
N         0.96197619651916   -1.21401467604495    5.06512166171108
N         1.74305556683033   -0.36343093266020    4.38361218206964
H         2.03238986942854   -0.58874836285074    3.44474765632358
N         1.43340695294952    0.58143025174554    6.29151797096741
C        -0.49879346897313   -0.73747933135938    9.56901020602733
H        -0.32118980733133   -0.15709034067659   10.46321938680099
C        -1.40292959207321   -1.78105419724395    9.56210162887627
H        -1.95538858619896   -2.02356898979544   10.45590401115163
C        -1.57102366033654   -2.51923712608524    8.39321184832975
H        -2.25842634234652   -3.35088033240753    8.36144643972096
C        -0.83780981731024   -2.16546840207041    7.27627614646740
H        -0.92168652864282   -2.69289880875245    6.33991593377559
C         0.03598764821691   -1.08575280768251    7.36276106858251
C         0.79562595884701   -0.61406353047348    6.22834354342104
C         2.03100210655408    0.72298181090011    5.12994274277287
C         2.89643456585587    1.87337982295020    4.73808956764877
C         4.14419571638847    1.84139719131207    5.63148866629030
H         4.68292326652955    0.90333441782505    5.51238713052555
H         3.86220697437312    1.95329332660169    6.67651928494974
H         4.80744325596273    2.65979235827134    5.36453318099186
C         3.29198707576715    1.77987269888890    3.26250179058052
H         3.89689998510419    0.89476987524726    3.07277519335360
H         3.88345028453740    2.65127822737116    2.99312004827069
H         2.41215839867926    1.75764731449685    2.62080667960145
C         2.11606690086796    3.16572921091163    5.00062030181076
H         1.80560823744498    3.20011702832956    6.04358649464213
H         1.23113148990223    3.21560559054202    4.36890167908513
H         2.74606464089300    4.02732660907203    4.79693561575033
C        -1.51077840571837    2.41930112597329    6.26540553101564
C        -2.07185023191182    1.15678907645603    6.06716066405437
H        -2.14900560789621    0.47453750667356    6.90384897850205
C        -2.52721737882862    0.78195657061169    4.81879315540605
H        -2.95935507310457   -0.19770026127997    4.67482703985533
C        -2.41996391085351    1.65893345859812    3.74999234499280
H        -2.77217587125769    1.36475403389901    2.77225149804794
C        -1.85755230781268    2.91140461375555    3.93768148959637
H        -1.77436816870949    3.59541706851381    3.10495351997474
C        -1.39546032223445    3.29003076761799    5.18524769487833
H        -0.94790829960074    4.26363481802269    5.32937556953283
C        -2.03217686059315    2.48321914941755    9.08623130268017
C        -1.60000684020379    2.44356565372513   10.41069587654202
H        -0.54253297853200    2.56222531074597   10.61581546379053
C        -2.50764544451114    2.25563197523390   11.43463989189208
H        -2.16970577083926    2.22780398269212   12.46022103885790
C        -3.85370089241896    2.09855134661857   11.14176509502489
H        -4.56619033404468    1.94669981931601   11.93917407438264
C        -4.28667920922765    2.13828809435274    9.82676613903757
H        -5.33690975646767    2.02100015758638    9.60081308883372
C        -3.38259846461453    2.33246295512100    8.79687682013321
H        -3.72773863774679    2.36413069186510    7.77271641432428
C        -0.55733617585626    4.55430832315649    7.93678405311853
C         0.68818677309589    5.09202176698551    8.24182619558371
H         1.52967374465485    4.43221208579438    8.41626515382533
C         0.83513795774275    6.46586207441200    8.33602753743707
H         1.80109238542425    6.88518166130904    8.57403981404966
C        -0.25321338374291    7.29662261068089    8.13032230832571
H        -0.13784214919274    8.36827565331470    8.20500055009953
C        -1.49728647885066    6.75802833500309    7.83518028627276
H        -2.34628518455458    7.40913749387200    7.68311138423138
C        -1.65512421424348    5.38885368456455    7.74167825601873
H        -2.62372450506360    4.96147536423635    7.51909395388895

