109
CSD_code = MIPBAO | q = 1 | S = 0 | Stoichiometry = C54H48AuN3P3(1+) | MND = 3
Au        2.76268335434477    3.38919051227754    4.44906590887018
P         4.42583400409660    2.60441477781861    2.95063055004781
P         0.76022232201894    4.45246788182682    3.70487071030309
P         3.20924280907660    3.45261763935810    6.80503678268970
N         3.32581750123616    0.27196817803623    4.38635720759165
H         2.91170341920939   -0.60163238891538    4.68138630364486
H         2.85604141477558    0.67144970970349    3.58218852645703
N         0.57469105356049    1.54031290223452    3.30571849671122
H         0.34727804932630    1.94067338002094    4.20935483901904
H         0.36639237419145    0.55173046971835    3.26490791616590
N         1.09658355883765    1.42508459950792    6.38134122411538
H         2.07637077971007    1.22775876328742    6.21128806149573
H         0.52216934985618    0.59428060956533    6.34658412022412
C         5.40764018512293    1.25005393551206    3.63081199356640
C         6.79853188164986    1.24480918298397    3.60907234998627
H         7.32481325228605    2.03551305666776    3.09313859694512
C         7.50181606822081    0.23450647773881    4.23546678719693
H         8.57994059561017    0.22529423792220    4.19888275722478
C         6.81734184905131   -0.76189336060923    4.91498891693538
H         7.36302360746277   -1.54889029562028    5.41231854120903
C         5.43712238099345   -0.76063301914052    4.95555626361581
H         4.90771289446570   -1.53786624298753    5.48858246998497
C         4.71047935949780    0.23667312940999    4.31109827026824
C         5.63157993066670    3.88228166474243    2.51468717201530
C         6.31461721923940    3.90078262619332    1.30203961962035
H         6.14206435262527    3.12024558758316    0.57375243932023
C         7.20979675042489    4.92198068869490    1.03959254280860
H         7.74229788091635    4.93840729062366    0.10058030097459
C         7.42483661808541    5.92197676920299    1.97565654809851
H         8.12377845451941    6.71634274873986    1.76242360077278
C         6.74255047684357    5.90747127439711    3.18215727522068
H         6.90591077505033    6.68793293419272    3.91056281400227
C         5.84416410081047    4.89200659092940    3.45004180882441
H         5.29527410779841    4.87461890964941    4.38594516914929
C         3.82562424894963    2.01535968008189    1.34422716571096
C         3.99032577528969    0.70922471598532    0.89777514615983
H         4.54920044169180   -0.00135589914507    1.49261160469516
C         3.45444990541513    0.33234105807599   -0.32158928830871
H         3.58669150345168   -0.68004249160082   -0.67355659236926
C         2.76046995546127    1.24996933485792   -1.09258951447526
H         2.35202001896489    0.95143154049137   -2.04586244546313
C         2.59112066102072    2.55196402425578   -0.64534623185197
H         2.05159189984189    3.26702830576591   -1.24720189081609
C         3.11022200300168    2.93173719769103    0.57559930542644
H         2.97249906558482    3.94149961223821    0.94292936554588
C         0.09753964954031    3.65367944102788    2.22718866464426
C        -0.29857752905780    4.36430879200656    1.09898885905948
H        -0.30166148817982    5.44488693110208    1.12513168902401
C        -0.68926394021233    3.69530963455643   -0.04464575714623
H        -1.01317389218899    4.25151860220210   -0.91042262677997
C        -0.65592390295353    2.30931379361861   -0.07701686122371
H        -0.95165270501700    1.78281989928977   -0.97141714383455
C        -0.25229325588334    1.59265510628431    1.03225836803184
H        -0.22523292885760    0.51233440930869    1.00153499813495
C         0.12154752147888    2.24866854299273    2.20183925455936
C        -0.61586307664489    4.51852390764380    4.88316687491430
C        -0.40908982584279    5.25670321342792    6.04729689451514
H         0.52610152026622    5.78557540462742    6.18401905897622
C        -1.39757343867453    5.32117104650895    7.00800049049833
H        -1.24449947725200    5.90990973907423    7.89941216708550
C        -2.58406532196311    4.62638903434900    6.82671690932196
H        -3.35620038686202    4.67542916090482    7.57903922305982
C        -2.78202275237140    3.87276020748037    5.68212952891043
H        -3.70732082151237    3.33359677687495    5.54281717478021
C        -1.80205830607327    3.81559641825684    4.70639940034607
H        -1.96561199977328    3.24525972596343    3.80145668182186
C         1.00335517864986    6.18169082814712    3.22557972018846
C        -0.00792965820052    7.13685627104830    3.27546498315805
H        -0.99806176871281    6.85740525465583    3.60857044276929
C         0.26526413961797    8.43902414459460    2.89761119629293
H        -0.51756049050846    9.18167612985772    2.93306399662593
C         1.53722832067754    8.79305694095951    2.47409159630926
H         1.74240671995453    9.81181672513987    2.18246815440974
C         2.54670114273435    7.84441228040441    2.42759309160889
H         3.53911364939230    8.11903543901595    2.10184652268497
C         2.28164025285670    6.54190572748943    2.80610841555337
H         3.06595480903175    5.79211460297601    2.78399417553490
C         3.90921456008291    5.04568678946721    7.30843121070384
C         3.61705314826836    6.14728191796521    6.50865424620514
H         2.99445575456627    6.01707302607919    5.62937204380398
C         4.12175292378317    7.39320472339819    6.83060322636765
H         3.89113521458372    8.24467677967102    6.20737302112966
C         4.92632973264863    7.54132730546858    7.94924914002363
H         5.32456339738121    8.51240205694895    8.20107291000894
C         5.22508436173976    6.44510461112139    8.74421595500484
H         5.85347223567257    6.56467147574226    9.61395243410550
C         4.72153980415571    5.19623706233273    8.42915339755571
H         4.95485595944847    4.33834008713858    9.04491881722198
C         4.41421798605772    2.25207333698122    7.43463605170589
C         5.70701020542076    2.33996421453972    6.92122244845841
H         5.94629162075357    3.12388277584611    6.21303551385553
C         6.67288438043410    1.44115407054177    7.32522559097176
H         7.67860530109739    1.52297509418493    6.94247724439248
C         6.34712418852181    0.43274493966487    8.21998417712496
H         7.10180386180699   -0.27155331021054    8.53472343843206
C         5.05736181621077    0.32880230308268    8.71292367480224
H         4.80650347036032   -0.45658264670300    9.41046216973384
C         4.08671373493287    1.23603284424760    8.32475252571934
H         3.08471772434726    1.16870828197951    8.72762236266852
C         1.74020830327147    3.24935940036115    7.83894594572851
C         0.82901598175436    2.24624986372245    7.46624351636905
C        -0.36961022757428    2.13489720129727    8.16604769835777
H        -1.07852395505963    1.37124621913882    7.87820592572098
C        -0.65132287410511    2.98394292662926    9.21757636727629
H        -1.58100863526265    2.87523232384335    9.75453628593093
C         0.25446743928054    3.96573784809215    9.58950732185965
H         0.03561132672407    4.62126987521977   10.41783882634457
C         1.43814538360465    4.10657026043354    8.89191404782720
H         2.13977172737082    4.88219391001701    9.16425281143581

