88
CSD_code = MIPCAR | q = 0 | S = 0 | Stoichiometry = C44H34CuF3N4P2 | MND = 4
Cu        5.72255220658711    4.47358823913642   13.55667382577272
P         3.47481552721153    4.29198571217217   13.95653988470362
P         7.13143696667883    2.78872049608368   13.94117534941215
F         7.59500748103881   10.26845761377338   13.74085767371236
F         5.70233601170480   10.72756950465016   12.83160988914532
F         5.78207767658646   10.08305396312663   14.87953334780569
N         5.55734324851547    4.53529601113482   11.35844903104270
N         6.12829763529340    6.35205859613760   13.31460371177613
N         6.32761419984349    7.42695495778465   14.05764137204589
N         5.88285457827883    8.09950970481955   11.96898017182196
C         5.28370188161386    3.62601963904277   10.43892576120950
H         5.28599364679562    2.59762940167386   10.77753562609729
C         5.00624392212716    3.94780697310128    9.12233818049899
H         4.78454795268958    3.17136703092186    8.40734243457429
C         5.01722839473708    5.28811359255403    8.75089756904440
H         4.80332440740910    5.57506297575895    7.73138378301470
C         5.30467675945431    6.24479355021752    9.70240174859912
H         5.32815203194701    7.29929708408685    9.48063701290975
C         5.57044120778792    5.82751171393195   11.00868246885253
C         5.85880930633324    6.76414834122191   12.06322688599038
C         6.17238944646196    8.45503552829499   13.22490933942628
C         6.30921298725150    9.86501535270778   13.65969238148988
C         7.36767446714802    2.14381151817109   15.62698190458937
C         7.07590117718578    0.84203919364496   16.01665273353893
H         6.72543860014477    0.12365862441847   15.28887694160194
C         7.23693672424766    0.47100272521380   17.34057573850807
H         7.01348800923413   -0.54209572022245   17.64255067325256
C         7.68194471063861    1.39051288033095   18.27582756413923
H         7.80491188988037    1.09401626685120   19.30704448305497
C         7.96415474944155    2.69292361645708   17.89113162730372
H         8.30414447110255    3.41150890204086   18.62184610778009
C         7.80084853079733    3.07168790956398   16.57323527098628
H         7.99917789506222    4.08814549908076   16.25747904342180
C         6.61475208266713    1.31690665528806   13.00253934157822
C         7.46426390966745    0.55640790193850   12.20844251614878
H         8.51507689631170    0.80192357557645   12.14945002173796
C         6.95751845928699   -0.51204625201362   11.48805067152816
H         7.61887235033381   -1.10269444817581   10.87100811231739
C         5.60931894166303   -0.82347051913081   11.55114857695303
H         5.22091485685537   -1.65612036668317   10.98356399256416
C         4.75628738734230   -0.06107466862368   12.33515605706270
H         3.70241735938447   -0.29388114223799   12.37570410128768
C         5.25651522160382    1.00751014957042   13.05267101038427
H         4.60030890560794    1.62803851442762   13.65297024504599
C         8.84507427747000    3.05825822048302   13.39817710838529
C         9.05424538509890    4.05583110740008   12.45120312979289
H         8.20604244919365    4.62764843571376   12.09741967121913
C        10.33091903474654    4.31374996794486   11.98716259503945
H        10.49280813580797    5.09036312294575   11.25441417529627
C        11.40255553436399    3.58147345058926   12.47259299977388
H        12.40111200402899    3.78523888219349   12.11527258167805
C        11.19817438135858    2.59296804867411   13.42272837459505
H        12.03684640038423    2.02776629466566   13.80273119458428
C         9.92350391104065    2.32817487019598   13.88934968892311
H         9.76187827892046    1.56089225508126   14.63446027648272
C         2.75888336889619    5.93489880786645   14.27882176595179
C         1.56259280984182    6.40399927666499   13.74892870985121
H         0.96416200158382    5.77602160988955   13.10292476480184
C         1.14319831376986    7.68955535118149   14.04287341804548
H         0.21755269167072    8.05705850516324   13.62337304521101
C         1.90624752539349    8.50655826731023   14.86098987941191
H         1.58035069759871    9.51449334673819   15.07007344236652
C         3.08917958098687    8.03417100329537   15.40694339117245
H         3.69110999787122    8.67020208081270   16.03749661659001
C         3.51295171917947    6.75107249080905   15.11944026003623
H         4.44544412718096    6.37829404928454   15.52359929282859
C         2.90036063630138    3.40660129037821   15.44573268504058
C         3.86036315831594    2.82432893547798   16.26387515514215
H         4.90447995380807    2.89942150467109   15.98453437993276
C         3.48439449344713    2.16440480448443   17.42008421610076
H         4.23721083875722    1.71253046188874   18.04938531232814
C         2.14495711696834    2.09041386086545   17.76333244778791
H         1.84583084805669    1.57637934037938   18.66484849478825
C         1.18429065275339    2.68136730712479   16.95546061145936
H         0.14127742482885    2.62784067784137   17.23173577262019
C         1.55619738052286    3.34252309873743   15.80034713549375
H         0.81196392419947    3.80999281206064   15.17043436199951
C         2.44973284760528    3.60856049192543   12.62388557766321
C         1.91796268354843    2.32362186905954   12.67867443578527
H         2.00525060549560    1.74345531145673   13.58735258207861
C         1.26782539595803    1.79546673745732   11.57811155797554
H         0.84722552032084    0.80128645873297   11.62910657451525
C         1.15354095130909    2.53484542677773   10.41251257815419
H         0.64507369488797    2.11848286514566    9.55559491730974
C         1.69462732708007    3.80929609935509   10.34635431382153
H         1.61155992438578    4.38744476451666    9.43751556396615
C         2.34687918464473    4.34100465663851   11.44149221419102
H         2.77983773846701    5.33173498233356   11.39100854612042

