67
CSD_code = MIPKIH | q = 0 | S = 0 | Stoichiometry = C18H29F6FeN5O6S2 | MND = 6
Fe       -3.23929808646450   21.29005161492399    9.30014442229204
S        -6.02185929271514   22.68987891836301    9.91741451577632
S        -5.46703895568111   21.07281905744058    7.39951437406595
F        -5.37678898965531   23.78789014420157   12.30580052243297
F        -4.88150604520020   25.11976787993780   10.69901724623318
F        -6.93218717646930   24.92258057387160   11.32828842048807
F        -7.53738853447959   22.64059266424190    6.54852220443390
F        -5.56690135313385   23.45297750198111    6.12944552935885
F        -6.31467920926184   21.80608952511939    5.00753762478542
O        -4.69508934578282   22.16110657749149   10.25793192619078
O        -6.11991405184334   23.36363310303171    8.65501950669358
O        -7.13080556990083   22.10696421969381   10.59897419229649
O        -4.14831350599608   21.65981846784756    7.59450106016382
O        -5.38560355763818   19.90095238761135    6.56449504773725
O        -6.27300390142478   20.90341951821742    8.57192280164361
N        -4.07138347916520   19.64414373107039    9.40074957656283
N        -6.03737640629184   16.03743166454423    8.71926673275823
N        -1.83445803001972   20.38970825788887    8.35897567376930
N        -2.26852551292426   22.95805587127497    9.07017094824576
N        -2.24858496796737   20.97302371724762   10.95956495928867
C        -5.14681460295029   19.31047434645185   10.10595295194791
H        -5.50128061880652   20.06557613611707   10.78370880618070
C        -5.81572002334886   18.12353067026262    9.93653943308681
H        -6.70047103369533   17.95084317606998   10.52140149697297
C        -5.38772731628547   17.20884701059939    8.95582417567674
C        -4.23143737062710   17.57055144211003    8.24042879236548
H        -3.83482659860584   16.94656433870762    7.45914899774419
C        -3.63828780747815   18.78854091360737    8.47808243464650
C        -5.73020609286246   15.29097625889446    7.51986584706296
H        -5.80102108371349   15.92085283896177    6.62840829322221
H        -6.43059135578707   14.46607107162341    7.41770313145104
H        -4.72271563411448   14.87247270296152    7.57873321124172
C        -7.30347645184948   15.78276478405517    9.36760472504159
H        -8.06117408539345   16.52146907859854    9.08880842990426
H        -7.17983296784390   15.79774828043330   10.45136105466320
H        -7.65867902429668   14.79442474367624    9.08504877480768
C        -2.52278498390941   19.32681510862631    7.63866215875650
H        -1.83872311739383   18.53933808639763    7.29996555175128
H        -3.01961066574952   19.76610504327470    6.77311728103117
C        -1.31225696305413   21.42541440828449    7.47891699792336
H        -2.11435841803169   21.65220901715669    6.78198438703644
H        -0.41654107738404   21.10113191607871    6.93379538431320
C        -1.05668815867035   22.68170582903774    8.29863178672635
H        -0.20449750430544   22.55174580015429    8.96435443034377
H        -0.81993556701861   23.51476284303240    7.63065397792437
C        -3.06162966019902   23.97188556282108    8.39842701926794
H        -2.62707018066099   24.96681277254180    8.52801877656227
H        -4.07180824022030   23.95171586400251    8.78305019783442
H        -3.13587461335497   23.72782757265126    7.34616990864676
C        -2.02246085398579   23.33278818200211   10.44945993675470
H        -3.00079447930694   23.54349082749139   10.87012649764720
H        -1.38674769666730   24.22453789931300   10.53349406347174
C        -1.42193471559986   22.15753982764287   11.20170249886224
H        -0.39890727307400   21.96476197933543   10.87815935032719
H        -1.38466766432792   22.39311158415490   12.26927230783159
C        -3.13213824438350   20.75630127810180   12.09120532727072
H        -2.57091195225208   20.65649703382776   13.02565045127858
H        -3.71465805894146   19.86039635414160   11.92330207667741
H        -3.82060410695750   21.59123611719545   12.14510386623036
C        -1.46568095321166   19.77427279200813   10.68589553546683
H        -2.15877224177561   18.93688758764280   10.70174049659557
H        -0.69341175137044   19.60593524620512   11.44942742733166
C        -0.84414541050653   19.86464822848870    9.29698635537136
H         0.02525876729807   20.52081848242010    9.31018625246773
H        -0.49646524808731   18.87279987855974    8.98841624755069
C        -5.81710538813403   24.22264624157567   11.09864477088891
C        -6.28390553908131   22.33654744671530    6.25120083865633

