38
CSD_code = MIPKED | q = 0 | S = 0 | Stoichiometry = C15H14Cl2N2O4Ru | MND = 6
Ru        4.14880604133497    5.45297406355323   -1.09523061138617
Cl        4.52136345469253    7.78299915865806   -1.46789182706077
Cl        4.28361187837108    3.10882936654495   -0.61984256160484
N         5.40634182111798    5.63688946738918    0.48565137233344
C         5.05720226754884    5.87538040640230    1.74543158002546
H         4.01099312421297    6.08218682858284    1.93190511578051
C         8.49942000748418    4.82783193067627   -3.06530739750221
O         2.42711953080017    5.08901558129699   -3.52302895085455
C         6.12457402284026    5.02689699282496   -3.33099339082273
H         5.24497043422115    5.04434771276744   -3.96189045329286
O         1.59815603811169    5.85906776277122    0.42883619638291
C         7.66613093064880    5.36849368252782    1.20885623835095
H         8.70079702592541    5.17137216304338    0.98849304344012
N         5.93058273117425    5.19212874150764   -2.02631069086411
C         7.37470940307069    4.84329369601554   -3.88766181363374
H         7.47284215046869    4.71427284783795   -4.95395471906415
C         9.86399635089972    4.62370937887293   -3.63132228149292
H        10.62845858160091    4.73953915630441   -2.86820485857802
H        10.05039378403396    5.33707247292514   -4.43203229085337
H         9.94254078047346    3.62359585911726   -4.05609588726961
C         6.69883845786299    5.39909596365493    0.20758135564833
C         8.31093213313324    5.54987140018823    3.64181958288080
C         7.29521109389632    5.59802775233233    2.52211232650436
C         3.09199426232718    5.22864999238732   -2.60735380568705
C         6.99909735546197    5.18541426839660   -1.21312748472442
C         5.95949255935890    5.86791866728566    2.79259050284149
H         5.63394946104916    6.07467676638238    3.79828237521190
C         8.28915667701756    5.00632518475743   -1.70569832639318
H         9.13047753484597    5.01095657770085   -1.03205669011057
C         2.57491722229455    5.70763755735319   -0.13923085866773
H         8.17820114185820    4.58731415023459    4.19029166866475
O         8.03674145355126    6.61103956202739    4.50995100797833
O         9.59490065055375    5.59568648353607    3.09330888664461
H        10.24349144984853    5.68339386527443    3.80101583864891
C         8.66058971482043    6.53437253989663    5.77296056068152
H         8.22498892535526    7.33330459410791    6.36833640764228
H         9.74401659231351    6.69029281026248    5.71157963380138
H         8.46149295541530    5.56782459459434    6.25153120640669

