59
CSD_code = MIPLAA | q = 0 | S = 0 | Stoichiometry = C16H23ClF6FeN4O6S2 | MND = 6
Fe       -0.18846603078152    3.61590364678591    9.39925576314443
S         2.74115705050939    2.47115421779699    8.97819657382678
S         1.90395192259081    4.17906992037566   11.36413598219416
F         2.32127917490626    1.17041508090321    6.65323749173208
F         3.93824831860443    0.26631525051819    7.76318996641127
F         1.89115726280723   -0.09919640051646    8.32735145377201
F         2.20652389345733    1.92339584158660   12.79762906707410
F         2.72485000256357    3.71431385537904   13.82503434193687
F         4.09343623753301    2.91762325910817   12.38936341161616
O         1.37590707742539    2.82761875399255    8.55942147719631
O         3.79736849623932    3.14179234807074    8.29606659148755
O         2.85659087722296    1.90586087238153   10.29015888656701
O         0.67023565883707    3.42798108235910   11.15123953965128
O         2.72589242547347    4.37190390897088   10.20631080863246
O         1.62610944669867    5.38580843376002   12.09937359331492
N         0.47717028911779    5.30765705568773    9.21094477534430
N        -1.71591811151137    4.42337323393787   10.22156746868030
N        -0.99589225104631    1.87555669302084    9.70960129448257
N        -1.13602785475646    3.71738597876149    7.68697181511008
C         1.52953596058566    5.68328219004185    8.49318906842297
H         2.00532825266609    4.90117891160330    7.92981513715939
Cl        1.96131799755350    9.51634406103320    9.41612617767042
C         2.02452743963188    6.97198059656958    8.51834263555339
H         2.89256960566888    7.23453244779467    7.93799721090125
C         1.39665901628666    7.90249485405096    9.33742161305962
C         0.30851608056073    7.50880551815395   10.10651518975638
H        -0.17449140808373    8.19802703533498   10.77907159217981
C        -0.10311546901037    6.19283288013594   10.01997526912026
C        -1.16754355418091    5.59978163601344   10.88261773584986
H        -0.64275030133907    5.27651049011325   11.78306041749502
H        -1.93854880577836    6.32907049606935   11.15559648334209
C        -2.16914893384707    3.40273758566489   11.15655353763420
H        -1.37984207276667    3.30856754025770   11.89727441177729
H        -3.11543576083667    3.66984456891661   11.64269985497311
C        -2.26125792600089    2.07545813202186   10.41846862927502
H        -2.43884481832403    1.26837523582514   11.13432013203015
H        -3.09393360105723    2.07102506017716    9.71653713978119
C        -0.13837321920316    0.98640079240623   10.47520177902526
H        -0.46871005033330   -0.05188428496783   10.38894815389045
H        -0.13631504085279    1.29569669051672   11.51276518549484
H         0.88164043005679    1.08432268031019   10.13051579995738
C        -1.14737726099989    1.38532039226233    8.35228998102823
H        -1.68794551285199    0.43066029896856    8.31159700278649
H        -0.13685248301021    1.24598277312387    7.98087564446690
C        -1.83006533446635    2.43998630810549    7.49999959034997
H        -1.79913755191465    2.13196696811006    6.45118085127158
H        -2.87956853406508    2.54802033363074    7.77344865711520
C        -0.23517263025532    3.94639436460840    6.57035366118744
H        -0.76597737339840    3.91298981486305    5.61436486307999
H         0.54000079699763    3.18985543538727    6.60331189554360
H         0.24017837077255    4.91202238335860    6.68146564344835
C        -2.05174680027212    4.84185556090677    7.84470270031698
H        -1.45546267299943    5.74899084293093    7.78413274120584
H        -2.80612495673835    4.86807806993203    7.04671112002640
C        -2.71576106164506    4.78070460863805    9.21543464159908
H        -3.17353296116882    5.74912925528756    9.44229131698939
H        -3.51332876874092    4.03910256395184    9.21991546718183
C         2.75016855366314    0.85806878808669    7.90036495740331
C         2.80594847381048    3.10035308693145   12.62639580847650

