89
CSD_code = MIPSUC | q = 0 | S = 0 | Stoichiometry = C37H46N5Y | MND = 8
Y         7.24543495784793   -2.36184164929304    6.37978326593048
N         9.97282495864406   -2.77878472304631    5.77501499295681
N         4.52173978013005   -3.50119475436613    7.95318484187106
N         6.67066719493607   -4.55709320320802    6.45554880633157
N         6.30008716282773    1.94694404817042    6.32798177378578
N         7.40244341790864   -0.56628749298621    5.12961266332519
C         8.63543039861398   -2.19499056736656    8.25210263606300
H         8.24184903568565   -1.73887789663349    9.16983560237063
H         8.89245677494218   -3.23519119781805    8.49809592401170
C         9.85486050417690   -1.46222945422246    7.83772568849446
C        10.34724065562652   -0.40944263609161    8.61492241830763
H         9.83841210145408   -0.16684304267406    9.53885807619789
C        11.45647127892482    0.32340393781090    8.24133753346064
H        11.80643738414327    1.13110006206526    8.86728870252920
C        12.11958163901919    0.01060947102342    7.06902994955738
H        12.99549591111327    0.56567618038388    6.76852041223258
C        11.65286277227973   -1.02342206797921    6.27352156450814
H        12.18099785736717   -1.24392662251292    5.35866111157380
C        10.53242047727962   -1.75777298442567    6.63183470502613
C        10.27289507823322   -2.58902267206358    4.35603742422168
H        10.00368558260246   -1.57852269297671    4.05127971545307
H         9.68680387623798   -3.29972057052952    3.77124573270518
H        11.33057551051511   -2.76760042412031    4.12025566756294
C        10.42396742571499   -4.11447338953051    6.17644117198954
H        11.48395096454716   -4.26498968351886    5.92711874851397
H         9.82986270090170   -4.87164007556451    5.66111779399195
H        10.30841397301999   -4.24665152784146    7.24979018065623
C         5.02990986624665   -2.56077165014698    8.81709273781602
C         4.93929058438428   -1.32785467760652    8.21125531504761
H         5.16074256480049   -0.37278501120234    8.65486944720879
C         4.35465890274683   -1.52961680617962    6.92888510743164
H         4.05296665520157   -0.75314844115451    6.24872587026627
C         4.11425708083910   -2.88146022603238    6.79709332862594
C         5.45703371061298   -2.88801824143271   10.20898620694811
H         4.65833011589705   -3.40523781568034   10.74201130956598
H         5.67856363525597   -1.96443476336428   10.73723684090971
H         6.34445226329318   -3.51980140674989   10.23423042057539
C         3.41381465296938   -3.59927141015749    5.69080879132482
H         4.05211020126420   -4.33956999311921    5.20591441399689
H         3.09577686428170   -2.87647317317878    4.94322430343308
H         2.52696489207633   -4.11037184878497    6.06899636514984
C         4.77045935462509   -4.91448075028736    8.06074897988239
H         4.09763338764710   -5.43828764967639    7.38093674008725
H         4.57624798950496   -5.25221524336194    9.08218693444984
C         6.24982924375794   -5.21022814899873    7.68244544403173
H         6.88620153940434   -4.84504085576232    8.49804847905678
H         6.38495273148157   -6.29853263327071    7.62951456121702
C         6.46774772146883   -5.24300618636370    5.29071461861393
C         7.01392908627473   -4.71032726844611    4.10146773377896
H         7.58823468556109   -3.78140153780166    4.16919433198530
C         6.84793282628241   -5.31853279496903    2.87832468418282
H         7.27811717528760   -4.86324262177007    1.99672406689346
C         6.13759493460141   -6.50566331374250    2.77308003903930
H         6.00451412861093   -6.98548293972609    1.81592664852784
C         5.60279913381561   -7.06026700347797    3.92312197392088
H         5.04368953551741   -7.98434661139384    3.86264079285424
C         5.75393941187493   -6.45299087481239    5.15343616386215
H         5.30014425000972   -6.92824112251142    6.01044533752727
C         6.36862756288489    2.14647414936837    7.68184446577901
C         5.08904034520874    2.17523708086590    8.17212969079478
H         4.80829831229898    2.32380943184660    9.19743457947931
C         4.21542614833341    1.98802739446858    7.08374232877283
H         3.14385440060744    1.95906804493978    7.12493408538282
C         4.98492740545694    1.85064536075987    5.95821539538349
C         7.64815993030804    2.31145305010042    8.42552113367351
H         8.18409266652064    1.36520847532453    8.51597428491436
H         7.43299831066520    2.67974519432869    9.42602575902523
H         8.30860524809284    3.02398953339676    7.93093910979104
C         4.54130030031493    1.66350303191279    4.54828628214109
H         4.98640464892095    0.77504533567007    4.09975207880108
H         4.80676798658019    2.52404194633771    3.93081385715164
H         3.45907360462986    1.55860481943027    4.52802920350132
C         7.42303176443397    1.91102452337562    5.43191382048288
H         8.10673947289101    2.73303415999190    5.67350110177971
H         7.05326291690877    2.05378593159574    4.41558728061937
C         8.21197345029494    0.58360446601561    5.50288394256447
H         9.10836464038194    0.69066692973432    4.87093417968205
H         8.56252240725664    0.44937554936985    6.52939370004618
C         7.08028004974479   -0.68551119733167    3.80415556620946
C         7.65277367280405    0.04905001944567    2.74333420857136
H         8.41464568908185    0.78964819499062    2.93480412102727
C         7.27564382383328   -0.17193592382751    1.43444034190640
H         7.74744052366226    0.40492586422591    0.65045586518217
C         6.31142859741408   -1.11126214527046    1.10945441948627
H         6.02476125821520   -1.27348243527199    0.08192305534133
C         5.71336220385981   -1.83119241879500    2.13365920748786
H         4.94770567231802   -2.56053216385084    1.90784912789848
C         6.08011192593707   -1.61983902132916    3.44370504793877
H         5.56836655983552   -2.16812453132468    4.23872766735508

