80
CSD_code = MIPYUG | q = 0 | S = 0 | Stoichiometry = C34H40CrO5 | MND = 10
Cr        7.81220194638625    3.31569599615687   13.61634759340560
C         9.58417109360008    4.60771523596246   14.29791411601508
C         9.00789637421277    3.90262234199748   15.39022927909338
C         9.20440614618294    2.49521233262722   15.16873125576483
C         9.77547176869375    2.35291194028145   13.86956812181034
C        10.09764498629367    3.65294917930700   13.38674028843054
C        11.20883325588461    6.48363888515021   14.60265967022769
H        11.37205916638468    6.22145012752357   15.64544492658310
H        11.34883972870326    7.55581536821300   14.49015261687661
H        11.95243631943407    5.97312261113010   13.99592796957963
C         8.57556214909240    4.50625796667351   16.69460537263900
H         7.69937481260829    3.97655789449710   17.07738486327366
H         8.28715979821826    5.54807725824929   16.53983787653313
C         9.69730467447305    4.43600953101418   17.73525225460812
H         9.98626640104456    3.40289423209168   17.91447371182062
H         9.36802466459229    4.87379026023056   18.67428003550299
H        10.57316869530471    4.97942049649015   17.38977834915734
C         9.00468817630567    1.48600262312163   16.17978936444588
H         8.28020142474217    1.73576573832803   16.94462736749470
C         9.71528643758240    0.35020160562344   16.27174863693055
H        10.48527545230536    0.14995596823630   15.53931656453695
C         9.56520764292220   -0.66536821550618   17.29553512751885
C        10.53423827646921   -1.66841798596046   17.39145866001325
H        11.36805095071211   -1.66020292562049   16.70404694747760
C        10.44124594484278   -2.65853901389006   18.34904857640621
H        11.20303561626925   -3.42234106543100   18.40956745970998
C         9.37173722911009   -2.67538064454033   19.22965738318516
H         9.29560393241699   -3.45036715276849   19.97790857401543
C         8.39635246167893   -1.69506715931363   19.14018916313454
H         7.55533231339020   -1.70904837038197   19.81853895599449
C         8.48908644924118   -0.70126405524299   18.18610081733102
H         7.71113156118492    0.04466328421315   18.12487558055715
C         9.85455816089695    1.09936036556986   13.07017325891911
C         9.80030835655905    6.08409614098512   14.15483220555687
H         9.05721548358385    6.62977785736220   14.73976216079312
H         9.67620896140020    6.35854565396479   13.10530106983562
C        12.03976999352890    3.25218268889741   12.11505822474604
H        12.65073562326869    3.22096893064814   13.02402470960028
H        12.58032271945364    3.75683633423821   11.31763227527029
H        11.80987207918628    2.23384938670045   11.79622508982524
C         6.65078033305735    4.71047447060002   13.47845932727941
C         6.28427301350908    3.08358336912134   14.57028188535780
C         8.78370909057978    1.09060004869252   11.98587895374669
C         7.38337643738420    1.35488258864162   12.54691490691446
C         6.79944754065060    2.43582422435733   11.84813434151691
C         7.85017017941514    3.21531456110117   11.29056614923488
C         8.99917402546723    2.34785124690173   11.10354715218987
C         8.92435216623362   -0.18089882758684   11.13273945578618
H         9.97132781261779   -0.24220713714397   10.82557119397091
H         8.71537988617239   -1.05331798093804   11.75474724178599
C         8.04639709678832   -0.18902198802380    9.88912528707804
H         6.99264370624852   -0.11490134844943   10.14295021886603
H         8.20244277086211   -1.11349488072842    9.33750892039086
H         8.30207219077685    0.64260789093082    9.23694099592445
C         6.56287230172623    0.21403420693950   13.08650058884047
H         5.55312681138420    0.57387166696286   13.29302767326598
H         6.48626225543436   -0.56286266194292   12.31889015395090
C         7.11736818471444   -0.41905974036933   14.35733060437425
H         8.15292889468795   -0.72366271358234   14.23096979542457
H         6.53514900912616   -1.29877961992050   14.62116095246382
H         7.06148491622168    0.28689854489083   15.18070631189964
C         5.33259502174150    2.66240871429575   11.58427259295817
H         5.17826264474655    3.70002948045774   11.28285223422517
H         4.74390035523865    2.48885288781584   12.48770511671026
C         4.81593451800654    1.73952836929406   10.47639928976725
H         5.42600686342765    1.83111348607955    9.58165221161154
H         3.79186868260434    2.00347961238940   10.22445425799736
H         4.82958009081484    0.70249571845292   10.80025949291533
C         7.73518601812716    4.45615672613587   10.45411492121669
H         6.92620440937331    5.08953823701635   10.82395581514609
H         8.67436014737420    5.00673646662152   10.54763386135277
C         7.51292257366452    4.14030144095696    8.97212851390996
H         8.32446878695708    3.52037772950662    8.60058102311016
H         7.48973095156937    5.06114561230864    8.39456870832192
H         6.57182343231570    3.61691040447869    8.82367141901268
O        10.86962590221778    4.02218187755189   12.32596464427883
O        10.64478308142894    0.20126015583557   13.24575519112374
O         5.90321088866557    5.59359357106926   13.48558191374461
O         5.32395932179579    3.00606681672401   15.21042806576472
O         9.93115045871543    2.49203512572553   10.34072214195228

