90
CSD_code = MIPZAN | q = 0 | S = 0 | Stoichiometry = C47H38CrO4 | MND = 10
Cr        3.37613494368567    3.58009005401409    3.02734681332685
O         2.78674660901812    4.68280352240857    6.01217695720157
O         6.38003912851220    3.84810540228251    5.94264924699793
C         5.55990921357468    3.93270727399822    5.05938915181986
C         4.34525882787056    3.09648318516962    4.90921792975651
C         5.61342043015385    4.88389429773232    3.88479189712345
C         4.21081980736273    1.87568538580979    4.20614953716764
C         3.05494421357495    3.59203122152645    5.21420179624178
C         5.50027573951914    4.16982382878267    2.52245723445711
C         6.48913896144583    3.31943709233273    1.90454447926781
C         5.29608420628592    0.98564991041409    3.79476951979031
C         2.09414206222301    2.68308234555849    4.69696291755921
C         2.81298164528471    1.63042378647676    4.05174487391455
C         4.28896403528277    5.54154210292474    3.39620274411830
C         4.57287470609445    5.15145897874380    2.05684712209893
C         0.65669956379453    2.76159396081857    4.96433736675660
C         2.20132769019452    0.42580368907725    3.48005499448250
C        -0.06923201360190    1.62752366563693    5.32654972031963
H         0.42851380157067    0.67148061882843    5.39585613310236
C         1.94880143873751    4.28061635115617    2.14153268982297
C         6.36177885808204    0.74313190440522    4.65993316545659
H         6.39534310827948    1.23681678755158    5.62046959630400
O         1.01034599315964    4.60781838087735    1.54635429383504
C         3.15176619745691    2.89344869592390    1.35613809555803
C         6.71046512743227    5.90912119197728    4.01871450961238
O         2.91880538259727    2.45631043041523    0.31087161295299
C         3.71916162183917    6.79343730663408    3.98825601649432
H         4.52453174011740    7.53388340574575    4.07272790628923
H         3.37808220089712    6.57282047714032    5.00277292459775
C         5.26773461975565    0.34350409165286    2.55725705862133
H         4.45754728114361    0.54466885799626    1.87178707743031
C         6.36427901411894    2.88238869531427    0.58052986595499
H         5.50076909310840    3.17074285679478    0.00310207027783
C         1.13465314124520    0.53064431397866    2.58779068718471
H         0.77665586005116    1.51096483104483    2.30196704186968
C         7.60925457767668    2.90361680545650    2.63633652874568
H         7.73352258192013    3.23149523584003    3.65733665342810
C         4.29774657076829    5.76850518519060    0.71780981528318
H         3.30194153203940    6.21472733891545    0.71469436714224
H         4.32436049622618    5.01286233382454   -0.06933658925843
C         8.61412020144737    7.12460274712106    3.19019364115490
H         9.33197897637230    7.30278897451028    2.40279099287041
C         0.00554314770936    3.99354640170458    4.91112268130413
H         0.56559455077964    4.87511695483535    4.63717528930109
C         2.66028481470417   -0.83952445027092    3.84104000347588
H         3.47652603082888   -0.93158073378112    4.54292497410704
C         7.64177847686551    6.15477121709473    3.01899978436928
H         7.61913350535424    5.58503486088646    2.10361424387385
C         6.77300770020626    6.65423173238054    5.19322133864467
H         6.05743961182683    6.47344240530539    5.98162858978126
C        -1.41919703268048    1.72438928521406    5.60730692519297
H        -1.97139073328983    0.83797371004683    5.88296580952597
C         2.78742282393969    4.37264778740821    7.39536046559527
H         2.55804835779831    5.30023336126621    7.91587633087634
H         3.76801062740344    4.00335127362492    7.71401635495114
H         2.02398175919723    3.62274409620498    7.62708831600269
C         1.01533422687326   -1.86056486695841    2.42428413916855
H         0.55736776612315   -2.74736853155730    2.01227442913563
C         0.54834111727748   -0.60603599834400    2.06562566210110
H        -0.27413491452168   -0.51283998423806    1.37245864613461
C         8.43373851285628    1.67691789440374    0.74739900397419
H         9.18535642575531    1.04474864596474    0.29917220183827
C         2.07058492611397   -1.97327628156217    3.31326891516678
H         2.43637272783896   -2.94823312933440    3.60007952146692
C         7.32634695900309    2.07223303392512    0.01383902318412
H         7.21206389791216    1.74499154372604   -1.00914400021113
C         2.56332977947011    7.40181691394679    3.20164544030485
H         2.12762160103550    8.22064528049298    3.76982070959784
H         1.79139282216478    6.65908735361203    3.02072007417118
H         2.90101484718794    7.79627863145740    2.24742204632852
C         8.56870788870192    2.09706604671095    2.06023414309501
H         9.42762421537071    1.79383795025391    2.64016347342619
C        -1.34324291072259    4.08351789249570    5.19669921938110
H        -1.83844451441386    5.04197219430129    5.14664986302218
C         7.32657440329578   -0.77477215289382    3.07333713890847
H         8.11234461098785   -1.46083290205045    2.79414365454160
C         6.27619547219633   -0.53004269864859    2.20344554420875
H         6.24500197762745   -1.01928410050667    1.24150146730855
C         7.36791575405814   -0.13345038471371    4.29898995281164
H         8.18625905791646   -0.31624302689132    4.97986666069592
C         8.67194847947060    7.85909035068334    4.36115242560991
H         9.43370244533008    8.61321639750126    4.49309865992591
C        -2.06115498824445    2.94961790806593    5.54027967866707
H        -3.11643588239709    3.02072523947906    5.75795916801111
C         5.34285441452775    6.84629814995199    0.41283207297953
H         5.08487346789330    7.36798811528049   -0.50526595858905
H         6.32517238121676    6.39863466482702    0.28919698204620
H         5.39516211859189    7.56977237041796    1.22292324096884
C         7.74829684700498    7.61886448757306    5.36407443450531
H         7.78634123953505    8.18550756870905    6.28293080198301

