72
CSD_code = MIPZIV | q = 1 | S = 0 | Stoichiometry = C22H45N2OPRh(1+) | MND = 6
Rh        1.88777689508318    8.08232611906613    3.23445527971044
H         1.35598321355787    8.34407280813145    4.58834367710124
O         2.72475972560117    7.89457788500775    0.96972331694415
H         2.92313768594762    7.00234231777771    0.66845759108388
H         3.58111609575582    8.35136494241348    1.01683412466869
P         2.73029416005611    6.13842069769356    4.09030442763717
C         3.73831796862294    8.83902569905436    3.86151252374241
H         3.70061592522444    9.92922409172000    3.82277825022972
H         3.93616174016119    8.54430552031548    4.89181745678989
C         4.77637623786759    8.31891345220344    2.95429109649297
C         5.20429710704511    6.98397932057714    3.04573854493557
C         6.20505390858566    6.51034535031939    2.19308275435469
C         6.73090833072778    7.35832472243201    1.22745595257586
H         7.50351256594085    6.99214950246186    0.56803971215235
C         6.31020371362713    8.67642470249085    1.10153831027548
C         5.33872838938544    9.14310463507949    1.97260701487679
H         5.04133928349255   10.18117005474839    1.91899476379849
C         6.75704466424335    5.11859520909048    2.31115820630813
H         7.55624505919202    4.97155924901211    1.59008916898064
H         5.99755292072294    4.35911571788179    2.12481738854931
H         7.16713407269287    4.95276314790265    3.30643108776063
C         6.91859168215303    9.56870969570355    0.06558804838087
H         6.92819011342861    9.07989316835740   -0.90697042255949
H         7.95092015179595    9.79379798905866    0.33010907552766
H         6.37567550887576   10.50713149875999   -0.01533286753677
C         4.58909783428430    6.11874462655565    4.10202018491996
H         4.89487653982377    6.48868421730848    5.08400669633005
H         4.92719940275222    5.08795209102664    4.01734365585441
C         2.31757951809513    4.52062749897910    3.22488322530513
H         1.22353926259997    4.45514371516016    3.22587296171038
C         2.40956936842688    5.72527982275821    5.88405601117539
H         3.05820674193857    4.87064176096371    6.11050272831973
C         2.86149587275321    3.26356983616273    3.89992800730732
H         2.56120720806554    2.39327268482127    3.31810164398998
H         2.46837395166355    3.13590762353207    4.90381467771797
H         3.94740711985679    3.26312466614601    3.94835422040621
C         2.78813549587227    4.58790875985924    1.77214569979556
H         3.83732850388279    4.86877831478523    1.71226265799633
H         2.19371856313162    5.30407762354340    1.21046776375309
H         2.67038987068746    3.61726078309335    1.29291549249519
C         0.95299153614332    5.34255039556587    6.11985610440364
H         0.81532393193675    5.03301661779153    7.15392319148041
H         0.63233253629353    4.52376881144807    5.48144424919046
H         0.31489557789701    6.20287535853002    5.93741078092605
C         2.77999516001269    6.86866158211038    6.82354288100008
H         2.22185158306106    7.76782260445277    6.56996373743923
H         3.84215209419619    7.09835952957997    6.80109232398527
H         2.52868622959115    6.59059008446870    7.84502480309271
N        -0.30922182685811    7.46001389436982    2.53006874206086
C        -0.97579647967708    8.76603867054805    2.42704538508764
H        -1.25716940317153    9.08645580459769    3.43232425297579
H        -1.89887684306381    8.68007320921174    1.83411535303364
C        -0.07807682102641    9.81635408375496    1.78952353695800
H        -0.65484369846263   10.74216971447819    1.65261665743393
H         0.23624675993685    9.47127773507309    0.80196851192054
C         2.03708483794979   10.86249807935754    1.72830471051588
H         1.53585340342248   11.76426505623548    1.35698027194405
H         2.35052705356305   10.26798282321789    0.87260579515915
H         2.91401874806327   11.17573842641286    2.28896051147205
C         0.78370646724664   10.95213113493232    3.72569621528510
H         1.67139394275094   11.15061655775202    4.32276873118627
H         0.04736088883253   10.47543774934451    4.36728510436876
H         0.37609298212090   11.90767507101582    3.37468428577844
N         1.13033562245456   10.09071275152465    2.58552609263410
C        -0.30191368213898    6.80699701650136    1.21935277205127
H        -1.31561939796846    6.75669682083658    0.80031161495122
H         0.06860552440435    5.78936096502866    1.32229288176090
H         0.33494159766228    7.34407020848147    0.51999656628869
C        -1.09957362402714    6.62553891847723    3.43697033436954
H        -1.15164898253402    7.08678641466376    4.42060744161407
H        -0.63927954531684    5.64599450302878    3.53771388489594
H        -2.12063854692555    6.49365788526031    3.05788216487554

