61
CSD_code = MIQBOE | q = 0 | S = 0 | Stoichiometry = C18H34Cl2FeN4O2 | MND = 6
Fe        5.34913863518240    0.00001664257653   -0.00009298767427
Cl        3.93950085687167    1.12109034028778   -1.22073710087005
N         6.95370882598219    0.74368935903754   -1.22380127915126
N         5.38649452344102   -1.41578865743224   -1.38741486098922
O         6.18357022745093   -2.00240268797400   -3.39678778875693
C         3.30627541571848   -2.73397011571747   -1.64787016806396
C         2.76203792685107   -1.85891437656685   -2.77197944839212
C         4.84681633330338   -2.75030421476529   -1.59579777180960
C         6.60570762602049    0.28718893682501   -2.57057406525117
C         6.02726762071370   -1.07624843399191   -2.43712056659223
C         8.15976977730598    0.05609797919615   -0.75962370112403
C         2.77567224951633   -4.16203899879227   -1.74049618156719
C         5.53039076949943   -3.18152993532509   -2.91645660453302
C         7.09916701867774    2.18945001493859   -1.20190291090899
H         7.45795803918136    0.29864210194184   -3.26268590164139
H         6.12810797590610    2.62413744215540   -1.43224053515673
H         6.28949598898172   -3.95636123804383   -2.76699000190443
H         7.39770820688487    2.51331353082323   -0.20807104270370
H         5.14396367191418   -3.38492983242721   -0.75618994376344
H         1.69024001808768   -4.15024109991669   -1.69615556140037
H         3.08449104530671   -2.20084665945448   -3.75444792272185
H         5.81326724266903    0.94170366841893   -2.94770376612775
H         7.84308125429704    2.53716542935653   -1.92918490862988
H         3.07277490675665   -4.63868993754908   -2.67357478313105
H         9.06670800170175    0.57633583886500   -1.09920314916735
H         3.07825960847248   -0.82834494462734   -2.63232089065210
H         1.67579473824641   -1.87893925188959   -2.74787245750789
H         8.16502653614744   -0.94822072457578   -1.18782108438323
H         4.82281899117382   -3.51628606228720   -3.67461438312989
H         2.98358317034943   -2.30156671698779   -0.69773564149910
H         3.14314197245615   -4.76330302749439   -0.91213348358047
Cl        3.94031899707858   -1.12027774186547    1.22208892035020
N         6.95363613029611   -0.74372961480024    1.22370151636462
N         5.38643412888466    1.41583228625551    1.38729077768384
O         6.18354217988273    2.00240187367771    3.39667515306193
C         3.30619490824244    2.73394390741892    1.64782249978348
C         2.76197966374995    1.85887385958968    2.77194294454661
C         4.84673313270517    2.75032456071083    1.59575200617834
C         6.60561249561892   -0.28718069955694    2.57044314030196
C         6.02722422856247    1.07627404087244    2.43697731813097
C         8.15976579707142   -0.05623715194760    0.75954357242625
C         2.77559834075023    4.16201890479299    1.74054315985003
C         5.53030553732949    3.18152720565183    2.91642318324521
C         7.09899352394834   -2.18950137481405    1.20186758188092
H         7.45787119466629   -0.29861728888856    3.26255247488792
H         6.12789819140434   -2.62410937664750    1.43220438097099
H         6.28936397260596    3.95640995660247    2.76699547514667
H         7.39753509780570   -2.51342281901899    0.20805665059904
H         5.14386202777523    3.38498226878697    0.75616431857983
H         1.69016644207054    4.15025344145430    1.69618355757484
H         3.08441853673214    2.20082823634572    3.75441166812613
H         5.81315250473464   -0.94167055214793    2.94757889672946
H         7.84287348704493   -2.53722522931906    1.92918141886256
H         3.07268170534749    4.63858873919560    2.67367091994216
H         9.06665364778497   -0.57655999218831    1.09912942633201
H         3.07821482551947    0.82830004895528    2.63228538313741
H         1.67573488730714    1.87889932044618    2.74785380490473
H         8.16510917252606    0.94808410893664    1.18773606145264
H         4.82272989804243    3.51619648220200    3.67461687508890
H         2.98355159148453    2.30153201232327    0.69765740963913
H         3.14310457795435    4.76335621836794    0.91225039700873

