71
CSD_code = MIQCIZ | q = 0 | S = 0 | Stoichiometry = C22H40Cl2N4O2Zn | MND = 6
Zn        2.80180476179365    1.06539620714232    7.74744524991116
Cl        3.27961289396859    2.44881148230015    5.99415014734338
Cl        0.73765787091846    1.53232904449648    8.60638547638447
O         5.92299927502469    3.12368208284039    9.58540179829330
O         0.99121001524996   -2.52219505893755    6.64860029161525
N         3.90444033894052    2.29387055081603    9.15676276518895
N         5.00586845075604    0.26134663973976    7.61511872305030
N         2.88834206880146   -0.80223898291720    9.17125976756794
N         2.04584043948687   -0.56731678058094    6.53337211441501
C         3.65116641705236    3.26446717664765   10.20662339289924
C         2.63346409978103    4.33214762897763    9.76565329179188
C         3.10088095407583    5.13696586230566    8.55711780870905
C         2.29778554890868    5.24402523890608   10.94298375869124
C         5.07340180393322    3.79519793889898   10.52061592142141
C         5.13879465648475    2.31587760916892    8.86841959201156
C         5.73864486481229    1.50818748253457    7.77737501757372
C         5.21804592435386   -0.26202009844960    6.27111739918486
C         5.30390664175599   -0.68621813067219    8.69621679527033
C         6.57397463183774   -1.51625765239510    8.45813624056325
C         6.83821869028406   -2.47550723758280    9.61239353476682
C         5.65200149933492   -3.41829853554881    9.76890712625352
C         4.39572796631297   -2.60777961193939   10.06427797660973
C         4.09407428830413   -1.60714722632130    8.93884448181832
C         2.72318919790530   -0.33504709903789   10.54231689423526
C         1.68564615031421   -1.50092852196369    8.74316868194783
C         1.59279538818362   -1.50071142460247    7.26195217480488
C         1.01244064591910   -2.22909679244184    5.24818458278637
C         1.70537688287776   -0.84594336202935    5.14954321812441
C         0.84947803621798    0.27568078417814    4.53352695252560
C        -0.47818804104660    0.47705557199588    5.25705720300875
C         0.63517392028541    0.00514680748214    3.04648650538045
H         3.22377303205807    2.73515974705648   11.06587726403688
H         1.73160151179472    3.78427347684471    9.47891773907773
H         2.31191913218309    5.81972743755676    8.25301848883307
H         3.98959768596846    5.72651167042200    8.77683280779253
H         3.31398001372871    4.48012505891836    7.71770582140206
H         1.52893045643035    5.95322373883514   10.64926013973048
H         3.17227201358164    5.80464994350920   11.26929088466641
H         1.92398194497621    4.66592925306878   11.78504978723961
H         5.40970703059403    3.54508621246829   11.53038733068779
H         5.17337259586894    4.87000139883163   10.36408971089187
H         6.81335915160587    1.36800550908468    7.95687989167842
H         5.60394654943967    2.09270619310295    6.85965502822001
H         4.73449688323268   -1.22983947826369    6.17147852803454
H         6.28016680976402   -0.35863656153375    6.02164764732038
H         4.75284887671862    0.42900414027272    5.57044345517550
H         5.44849326375516   -0.08715408169681    9.60189014586213
H         7.42747949316371   -0.84701800346103    8.32920641802403
H         6.46440064744623   -2.10461383122252    7.54642172077540
H         6.98658689267846   -1.91571894456379   10.53855550686369
H         7.74922128709809   -3.04334574469172    9.41494805807319
H         5.83308605123510   -4.12186517518441   10.58348597460224
H         5.51872428191165   -3.99552912124728    8.85121666357353
H         4.55025009446920   -2.07245841702956   11.00178881954262
H         3.54340863420608   -3.27849758204881   10.19337263539460
H         3.91772681376994   -2.16961835393382    8.01550847165853
H         1.94326154814097    0.42429523073595   10.54068603594181
H         2.43375550421912   -1.13924108974905   11.22725899686548
H         3.64585087437989    0.12095813309319   10.89042002448824
H         1.61165859193275   -2.52752771776478    9.12722700996919
H         0.82388946105095   -0.92432905421274    9.09948419743489
H         1.56690201937127   -3.02255137369977    4.74004641029244
H        -0.01590234547387   -2.21919857859159    4.88464761559814
H         2.63608894222316   -0.90579896641498    4.57384722775120
H         1.43597857197688    1.19221179424642    4.64168481180013
H        -0.99935265976842    1.32579236569044    4.82220471726418
H        -0.31287455670290    0.69209801546267    6.30962489405096
H        -1.12613196720726   -0.39406336668367    5.17360237710955
H         0.09039066795953    0.83168705557426    2.59877854882582
H         1.58764109265009   -0.09399095099438    2.53068144886583
H         0.06073682473787   -0.90653157480377    2.89036186043672

