51
CSD_code = MIQTAK | q = 0 | S = 0 | Stoichiometry = C23H23ClN2ORu | MND = 9
Ru        4.60860171697448    0.59254262678648    2.60587748795888
Cl        6.01150789546839   -1.27281366742207    2.56733838229617
N         4.04934624721369   -0.14496510523596    4.41246300859971
N         2.89069018920024   -1.10313640647771    6.03253705866205
O         3.07005184860787   -0.58300414470803    1.82964758285456
C         1.96983985192528   -0.87042245886870    2.41799631577409
C         0.84117133723646   -1.16480716071393    1.60759511516679
H         0.98876562366500   -1.13154752010948    0.53882691555773
C        -0.37500720435031   -1.48422982509162    2.14611853618207
H        -1.20974827493110   -1.69953159300181    1.49478157689513
C        -0.55109412914380   -1.52281976992313    3.53026263080894
H        -1.51672528591318   -1.75727487079395    3.95046617423270
C         0.51822438238692   -1.26320963591677    4.35022953859049
H         0.37306427760488   -1.28204637018103    5.42179653245505
C         1.78359627786462   -0.94393012339113    3.83418110858077
C         2.89275732832166   -0.72271032376177    4.72040318943614
C         4.11302342022676   -0.79709752036101    6.57308047588324
C         4.65503408650510   -0.98535238447504    7.83330800308915
H         4.08746219152027   -1.44725787657767    8.62638969208362
C         5.95954967258315   -0.57081311830618    8.02321338985948
H         6.42104596423094   -0.70562021801944    8.98960364223262
C         6.70187595748554   -0.00242823079871    6.98743711480806
H         7.72677302406958    0.27973129675144    7.17509357101083
C         6.16553339730930    0.19307917213658    5.73095262450510
H         6.75136644773963    0.58784363495349    4.91600364588691
C         4.84586188254911   -0.19507708093134    5.52979755700357
C         6.39666048575741    1.98118614775842    2.15941715415078
C         5.71285353114414    1.65726063004536    0.94805487876377
H         6.27854204773704    1.25618482178455    0.11407130529543
C         4.34777395887802    1.92033377879080    0.81001124322402
H         3.85601013415559    1.71667629074048   -0.13585969731763
C         3.58900347704332    2.49626490111001    1.87093151463908
C         4.26279704712508    2.79479154783696    3.06672953180033
H         3.73936420704915    3.29066931154499    3.87590579391673
C         5.66192360032019    2.56452123424580    3.20172950297023
H         6.16646395780085    2.89927222394943    4.10191763839039
C         7.86235685072109    1.70044768848628    2.28008196665629
H         8.39619124560773    2.05794600376775    1.40081464826251
H         8.00785900860786    0.61871114457781    2.34658802385248
H         8.28380375467952    2.16691139998497    3.16811884605993
C         2.13822218060898    2.84787288687258    1.64131601378203
H         1.74832858086755    2.16850006105229    0.87480851477689
C         2.05364493630484    4.28323006129344    1.10863563046692
H         2.44550471645189    4.98405907443372    1.84359238003446
H         1.01893549470634    4.54347820226717    0.89973160928859
H         2.62929301345313    4.38909772758975    0.19142590270630
C         1.27762967508964    2.68351359040865    2.89362013351240
H         1.44383797790256    1.70523306682545    3.34176382383532
H         0.22584826296549    2.76215380487664    2.62932732348974
H         1.49799583775994    3.45308312269249    3.63034468833915
H         2.15638789092350   -1.61900004849594    6.48572075868709

