50
CSD_code = MIQTIS | q = 0 | S = 0 | Stoichiometry = C23H22ClNORuS | MND = 9
Ru       20.32546759685592    6.25102539335587   15.20796374288117
Cl       20.12030184000814    5.01554735193140   13.24121232388291
S        15.85991064319581    6.24066731093127   16.09319234948891
N        18.28388323157433    6.28537086425084   15.21745627364861
O        20.19587169088391    4.46263603614170   16.22554344175560
C        19.22152043688777    4.03946140090914   16.93493778703065
C        19.46854855267407    2.93125772849173   17.79113599703483
H        20.45854778382929    2.50339589988150   17.75000237449930
C        18.50867491339321    2.42759761853869   18.62187799245674
H        18.73807419805587    1.58445716654781   19.25706477856599
C        17.23062526969934    2.99638125787341   18.65979400881139
H        16.47792156965859    2.59819498214021   19.32161323473685
C        16.94480860089335    4.05294403825246   17.83987253875340
H        15.95559795291027    4.48971333311991   17.85009471989950
C        17.90159123620225    4.59797137544337   16.96198742708756
C        17.52309846451952    5.66119869264511   16.09168613975784
C        16.23925357846875    7.31358892222182   14.77785686444968
C        15.39981736545461    8.17822341808845   14.09764392666368
H        14.36701442843081    8.27888405939370   14.39082509487836
C        15.91970039197252    8.88446889910638   13.02977707567020
H        15.28429993906100    9.56172809800279   12.48021633881094
C        17.24304894398517    8.70456024513787   12.63420102893689
H        17.61263848597847    9.23270406588386   11.76850720596961
C        18.08479593109493    7.85127754586578   13.31665368092909
H        19.09197250184042    7.65749451449052   12.97787163380603
C        17.59135841277547    7.16647206793265   14.42639414913086
C        22.33864895514190    7.08176420790441   14.49436144251725
C        21.40095549353829    8.14453500968828   14.35898914573375
H        21.33308266768972    8.67588868005125   13.41626212396610
C        20.60591731895551    8.53067343015187   15.44383300679878
H        19.92175955324350    9.36783700752279   15.33369012441062
C        20.75586370834185    7.92888709479464   16.72865982081512
C        21.72856512185799    6.92496619009862   16.86570869493049
H        21.91805363790892    6.48679925255602   17.83815056861851
C        22.50833639976419    6.49835327367803   15.76359966146901
H        23.27539477918522    5.74665093650405   15.91284299719853
C        23.14777007949547    6.64242417207646   13.31503724719676
H        24.03224395578125    6.09233962332751   13.62723734142694
H        23.44508937634508    7.49522181697244   12.70730548030500
H        22.53309814030201    5.98079646551918   12.69737992977368
C        19.98566906083646    8.47636921594265   17.90809492288221
H        19.09774746569986    8.99166686997966   17.52070960506689
C        20.85807549802374    9.50380671811276   18.63907875243088
H        21.76097082298339    9.03157329632831   19.02072036601394
H        20.31071460971664    9.92989329864632   19.47614987194397
H        21.14823613972270   10.30986905520881   17.96814011644722
C        19.51977814428063    7.38178824726155   18.86866492671851
H        19.03112764362433    6.57475772093012   18.32486262898515
H        18.81085103240147    7.79279015336165   19.58332829592503
H        20.35460643485908    6.96432597680741   19.42631079889010

