119
CSD_code = MIQYOC | q = 1 | S = 0 | Stoichiometry = C60H52P3RuS3(1+) | MND = 6
Ru       12.61372009740303    9.93594113430638   12.71776560370615
S        14.00946671032577   11.61248249754363   11.67384234323836
S        14.51478927261557    8.96918993918112   13.80964815423387
S        11.35872300045356    8.48984977796106   14.16717663187222
P        10.88593274685468   10.91752525914687   11.52236584965314
P        13.14966033329480    8.39110421534179   11.08070878009769
P        12.45491829994110   11.47770570371886   14.42880692801669
C        12.88476797240861   12.76726882276792   11.02629313357962
C        13.39224660354646   13.97490354004307   10.54318266230140
H        14.45000414419796   14.16685456279543   10.63932540128631
C        12.55774555529049   14.89045197563476    9.94276246333635
H        12.96000847612212   15.82473475540961    9.58180842431408
C        11.20987130803896   14.60028034389041    9.76495302779296
H        10.56731876592298   15.29788238920521    9.25040936196909
C        10.69916414083829   13.40599984109858   10.22871823260705
H         9.66936906821834   13.14440089641822   10.02878357799187
C        11.51450263383203   12.50243232869759   10.91313958252694
C        15.53937245192343    8.39455954287278   12.46898263338520
C        16.90081733162767    8.25435445179347   12.67025585286334
H        17.33618240270152    8.52614449281680   13.62016083368544
C        17.68806752228801    7.77594860890156   11.63567216217313
H        18.75218627488187    7.66920436028953   11.77760265639088
C        17.10906002153217    7.43872704177372   10.42248900125089
H        17.72364298032436    7.06263062561361    9.61900348906699
C        15.74746037501553    7.59423009460526   10.22469185766638
H        15.30477829091049    7.34824460265423    9.27007606840693
C        14.94531000339675    8.08542677571241   11.25006547683052
C        10.66295143580455    9.60040459677435   15.39858896202692
C         9.64306828879371    9.10650897056594   16.19604913420696
H         9.31003970730318    8.08759986701670   16.06676291357571
C         9.06072545127470    9.92607151027461   17.14638757076734
H         8.26279594212355    9.54764531191507   17.76598353258349
C         9.50480251452977   11.23021696259540   17.29893976893437
H         9.05532604579783   11.86982203954663   18.04298663170776
C        10.52329600650005   11.71951550170231   16.50100915288541
H        10.86659507266471   12.73700206960089   16.62476943891293
C        11.11104395817666   10.91240808064118   15.52863888609697
C        10.20052080507928   10.21828402142913    9.97148358083210
C         9.14695433055427    9.30803796834693    9.97361418386142
H         8.68939238324714    9.00049147664471   10.90205204330893
C         8.64520276693681    8.81484446605065    8.78304631237165
H         7.82708238408268    8.11010329465359    8.80098666816590
C         9.17232011645697    9.23661424777694    7.57456115664954
H         8.76722382532946    8.86306241956681    6.64658908148973
C        10.21273248318960   10.14976464977483    7.56326520062071
H        10.62080307259941   10.49706617731086    6.62626788499449
C        10.73320821623104   10.62817533375038    8.75083984236767
H        11.55030719279387   11.33414187379118    8.72698012768936
C         9.32547350334322   11.23312455208856   12.42580013312155
C         8.75375981422929   10.13477882230151   13.06621553077973
H         9.25996955871375    9.17724585028659   13.03295335734820
C         7.55937962005553   10.25114352077519   13.75100657116047
H         7.13194712543572    9.38839417494139   14.24002592993552
C         6.91325605962457   11.47456362355826   13.80677925524936
H         5.97888750751471   11.57104469019784   14.33806581641813
C         7.47477636515025   12.57341071952720   13.17998053106849
H         6.97886528644345   13.53165328391808   13.22453454326359
C         8.67272086235016   12.45908407618568   12.49450479420832
H         9.10509851023316   13.33462496886115   12.03737647928921
C        12.12610037290369   13.24512543395697   14.16103851964661
C        10.83448280031154   13.76170675238443   14.18122228283942
H        10.00001855638198   13.12349321624355   14.43145966926018
C        10.61598465453726   15.09451972391480   13.88363656540118
H         9.60976035541164   15.48629356227629   13.90656711419826
C        11.67732571285506   15.92121569386187   13.55725015472399
H        11.50140982153529   16.95887282256196   13.31851604222281
C        12.96564115099570   15.41350258444217   13.54402054118846
H        13.79799845749050   16.05490827039283   13.29726299595638
C        13.19315620232589   14.08413681447647   13.84524378984545
H        14.20130804645517   13.69749549076310   13.82936929992078
C        13.89391495899119   11.59729437228824   15.55337739148940
C        15.16296477306293   11.67727747291502   14.98101973923847
H        15.27177542643195   11.64261570922833   13.90315760318372
C        16.28511668860759   11.78505521126384   15.78135236191422
H        17.26197718038960   11.84846493420120   15.32573063029622
C        16.15543804254745   11.80929420120393   17.16008279808834
H        17.03093117645500   11.89042773847340   17.78592615585516
C        14.89806753984714   11.72631445330486   17.73430117975293
H        14.79096784844451   11.74299724853737   18.80857196131424
C        13.76999023903462   11.62204754223164   16.93965626617835
H        12.79823830180942   11.54888036239898   17.40638009344251
C        13.07097296075412    8.64848232593905    9.28477993881917
C        13.80505680402636    9.71348015494547    8.76398524402613
H        14.33184940666756   10.37699051418119    9.43839148026722
C        13.86151934456324    9.91056709089739    7.39818800704195
H        14.43570364388201   10.73261213187060    6.99760452446576
C        13.18848796701965    9.04902212512523    6.54558222985551
H        13.24293847713605    9.19540856628491    5.47732411521582
C        12.44643858707104    8.00021460241133    7.06270212967429
H        11.91856252609985    7.33163166183363    6.39936610462616
C        12.38202453704075    7.79600412453344    8.42973382795152
H        11.80008355757272    6.97595871483481    8.82484800455524
C        12.42345982349269    6.72810479362034   11.24108408130760
C        11.04784469574577    6.67848406369797   11.45025715820249
H        10.49827666404219    7.61044146425269   11.50255880924187
C        10.40404227622885    5.46205617172370   11.57144557078325
H         9.33586252667448    5.42822209918637   11.72496588105164
C        11.13453424877366    4.28630322139951   11.49525623369207
H        10.63638863280445    3.33385716401232   11.59270634170093
C        12.50452060366130    4.33095246348222   11.29177782638384
H        13.07177213951756    3.41432119074460   11.23034900294845
C        13.15371087715861    5.54640878403241   11.16160545388905
H        14.22280794141675    5.57487904529039   10.99979503113666
C        13.84650286908061    7.32067343518783   14.32790216352150
H        13.58122249729412    6.79616193880664   13.40279493593626
C        14.91922114998366    6.54804699544121   15.08564337124866
H        14.54563310723946    5.53799098839188   15.27324193597919
H        15.81069442895254    6.46049383394841   14.46080071538906
C        15.25616391899898    7.22667064762995   16.40881103326582
H        15.99616087331587    6.63376746878459   16.94646393263955
H        15.68704545461965    8.21268276570024   16.21775494780890
C        13.99601196811386    7.38178471795731   17.25102219738358
H        13.58875049889700    6.39691236765779   17.48993319871932
H        14.23206113916778    7.88519981738299   18.18901455560180
C        12.94827622563097    8.20064444107154   16.49919742427727
H        13.34813423120913    9.20125290345569   16.30714018050309
H        12.05297127310105    8.30212789410226   17.11523217059821
C        12.60843088570495    7.53513581256580   15.17794042787223
H        12.12047993406200    6.56998418360731   15.34712145037060

