54
CSD_code = MIQZES | q = 0 | S = 0 | Stoichiometry = C28H17Cl4NO2PRh | MND = 4
C        -1.27868813727730    0.92445307402923   -1.40003074969077
H        -2.28652245097349    1.11350267733282   -1.05599509170349
C        -1.05372218089715    0.00957275862905   -2.43540179250612
H        -1.89551697618272   -0.49735850637404   -2.87999683121438
C         0.22378343705034   -0.22992504322392   -2.86864248309267
H         0.42484147204864   -0.93007752236888   -3.66491080936574
C         1.29515048830207    0.45231478994008   -2.26022081247977
C         2.65184826404189    0.30538692096082   -2.60326198213993
C         3.62816225620302    1.01937992745866   -1.94623886519439
H         4.66110775078567    0.88705121124357   -2.23027406947938
C         3.31217909953142    1.90563103200336   -0.92406424423133
H         4.09343034986125    2.45487858896142   -0.42224909681360
C         1.98829276120218    2.10519883566541   -0.52867098952254
C         0.97460301812685    1.36274486486270   -1.21662091485249
C        -2.12373437880025    2.99761783842226    0.86907314735586
C        -1.47401753742966    5.39377215619193    2.92507352820712
C        -2.24229227454410    4.60089114952173    3.77551994951997
H        -1.91960778901460    3.58840497642842    3.98185560138587
C        -3.39746120124181    5.09325043069153    4.34705275341943
H        -3.99178641992963    4.48210552831092    5.00790095395019
C        -3.79559493978783    6.39108685585778    4.05456230670832
C        -3.05194687696428    7.18756960528504    3.19814568187695
H        -3.37966378446543    8.19082804790409    2.97485707976581
C        -1.89298314940211    6.68507728872577    2.63265076761521
H        -1.31376634089061    7.30195574970834    1.96108738838370
C         1.03944507168850    4.34194914339735    3.64927729937360
C         2.04896861293687    3.38833730280049    3.55802958817706
H         2.16280694175699    2.83305679763741    2.63738305275176
C         2.89788383904055    3.15933981274820    4.62415267513637
H         3.68208700383607    2.42161321652883    4.55622622590715
C         2.73080068609695    3.88794595260070    5.79266423337205
C         1.72551293855820    4.83784779480241    5.90165504828944
H         1.60686554370266    5.39373331336951    6.81876338900314
C         0.88182802998782    5.06310451783544    4.82979452847022
H         0.09326588289487    5.79715444203840    4.91701094048215
C         0.82761230091368    6.00332937640815    1.35540782393473
C         0.70653606751727    6.06429685503652   -0.03039284951041
H         0.13892625476168    5.28381441114817   -0.54092457692028
C         1.30345491945632    7.08363972510398   -0.74623069440517
H         1.21562137470756    7.13252764211929   -1.82041129492093
C         2.02978212107458    8.05016533335455   -0.06448284041255
C         2.16375330233459    8.00098398264846    1.31569391726627
H         2.73705100504433    8.75840371571702    1.82727295450833
C         1.56308948959719    6.97590480849951    2.02325490759763
H         1.67219955354318    6.93049836750067    3.09708614738262
N        -0.29798207635990    1.58134757786407   -0.80884848478976
O         1.64274492574368    2.90966125914235    0.41938740710321
O        -3.26353746176244    3.03804604388109    1.02783413967552
P        -0.00816772698542    4.60790955475093    2.17972395393796
Cl       -5.23832702219797    7.01806768499296    4.76356163897092
Cl        3.09736406350549   -0.79057239898007   -3.87309272230927
Cl        3.78296533984215    3.60875491785999    7.13276802857347
Cl        2.78208505857904    9.32949918472702   -0.94564605629567
Rh       -0.31003049918792    2.97092642827841    0.65758119368076

