35
CSD_code = MIRBEW | q = 0 | S = 0 | Stoichiometry = C12H16Cl2N2PdS2 | MND = 4
C         2.81933384335688    3.61720668860074    8.93797884585543
C         1.83185823584468    4.48996772904609    8.59297794209316
C         2.70809672459944    2.77632829054384   10.05888950960232
C         0.65856951581963    4.62018789927009    9.35672552975300
C         5.63105792537445    3.38024815028068    9.15576597675661
H         5.69172576219914    2.35863007007063    9.53167089462222
H         6.50124699878580    3.60351719504899    8.53401829122060
C         1.29492009588462    7.08338720449409    7.67177377112291
H         1.50811567582412    7.73232109353343    6.82041848808991
H         0.21710436209383    6.97471873657783    7.79661812993341
C         5.49998100899635    4.37252425328313   10.30255898949736
H         6.34772915268902    4.19442604437404   10.96730753360517
H         4.60046162854470    4.14035187897897   10.87823307256590
C         1.94454725999554    7.60902397326484    8.94445118489591
H         1.85871604739338    6.85611834571623    9.73093451848590
H         1.35696336122305    8.46991230743091    9.27248503626122
C         5.47432428201862    5.84319621424743    9.86223122885231
H         5.22715357969029    5.90074618139916    8.78518246151500
H         6.46630563820002    6.28201716268872    9.97034010156727
C         3.40544534183738    8.03066517732659    8.76012559924290
H         3.91081737251274    7.36017060710196    8.04036763889782
H         3.43171702876500    9.02649178129604    8.31606489791848
C         4.46391766675206    6.66557600240640   10.66599422353776
H         4.83917295321908    6.78838440857847   11.68399416359609
H         3.52352384108120    6.11265520657913   10.74154171794321
C         4.19631960579274    8.05161543228617   10.07115817875903
H         5.15285100378181    8.54401325161944    9.89052060797195
H         3.64760638150239    8.64745230016225   10.80373283475965
Cl        6.40015341658655    5.25614623089413    6.22864603278958
Cl        4.08357591535218    7.15214335909927    5.28675472718422
N         2.65447660136785    2.07631395592317   10.96606210842518
N        -0.30342269782426    4.77031209833078    9.96284027780723
Pd        4.22109004589308    5.41589813908181    6.69666456612970
S         4.26380456167232    3.40223792767489    7.93080387662889
S         1.91013986317410    5.45159470278975    7.10566704211362

