47
CSD_code = MIRDOH | q = 1 | S = 0 | Stoichiometry = C10H22CoN8O4S2(1+) | MND = 6
Co        6.76648992077057    4.24743704084703    3.69110820409937
S         7.08422230632189    2.92823762331867    5.57617769989394
S         6.44848450198645    5.57334086681277    1.81185141534541
N         8.26335336719937    3.43200836912599    2.89858164904022
N         8.03031963675040    5.49306752409123    4.26808207440112
N         5.50322711070554    3.00230562141637    3.11164984311385
N         5.27007145704258    5.05971373696970    4.48684437645290
N         7.01946441189982    2.90695402337825    8.15079888923391
H         7.11103793340450    3.24903046686062    9.09361701626750
H         6.91402900024731    1.91695001328374    8.00517169769847
N         7.30279486357434    5.00842749083347    7.26582206527023
H         7.31984169208192    5.39243351459851    8.19786791098394
H         7.47158443234946    5.66709198453871    6.48342358391688
N         6.23981392967902    3.50129484817810    0.11217639050108
H         6.22281210023467    3.12068915247674   -0.82122313168728
H         6.06909618190413    2.84068115610503    0.89312447258404
N         6.51373796625805    5.60898303847907   -0.76250968115795
H         6.42457499697771    5.27271993807101   -1.70756613550924
H         6.61557413241789    6.59849017092431   -0.61042634300784
O         8.30236347522129    2.25822083982658    2.22106222018616
H         7.34643119557356    1.90701471067739    2.23716098768007
O         7.75256406855308    6.48020082595775    5.06726323258168
O         5.77966319199765    2.02269144295005    2.30288089779631
O         5.23251267218635    6.23277234236248    5.16542952918542
H         6.18793953644390    6.58705331420585    5.14105552003547
C         9.36122454273481    4.09484638423441    3.03671337995142
C         9.22723046680439    5.29641187230837    3.81801622941933
C         4.30847382951364    3.19257076431288    3.56998023689592
C         4.17582604819198    4.38887132111330    4.36004734717059
C        10.66813641054352    3.65473843689932    2.47902994585031
H        10.95130585013317    4.29755936149832    1.64636104875436
H        10.59361563929449    2.63084785485642    2.12307108990438
H        11.44503683116769    3.72409486223887    3.23611339542675
C        10.37353065380752    6.19853279212612    4.12616413894210
H        11.05902671513070    5.72199910444412    4.82614830147274
H         9.99331954524455    7.11250344727703    4.57718241066433
H        10.92267060003795    6.44124743706394    3.22028412773901
C         3.16062580535989    2.29294688156303    3.26063351253346
H         3.53318859855004    1.40226574062167    2.75943739884059
H         2.44680621985952    2.79336178731947    2.60748173686419
H         2.64452852777922    2.00512781891134    4.17337988406715
C         2.87067999052408    4.81331284364954    4.93391572599556
H         2.96808586948366    5.79027804584731    5.39848634759599
H         2.54045369820574    4.09168455187987    5.67972127780820
H         2.11416258318197    4.85681842969003    4.15336380307312
C         7.14391302340537    3.71222717253789    7.09200311153359
C         6.39225446929718    4.79734303329692    0.29164116458245

