93
CSD_code = MIRDOI | q = 0 | S = 0 | Stoichiometry = C46H41Cl2NP2Ru | MND = 6
C         0.31823038683551   21.99905409282977    5.85820682548214
C        -0.34864409345200   22.12657317939490    4.74348637493455
H        -0.48579238457783   21.25655332639193    4.10560125393621
C        -0.90171457772392   23.37505468835317    4.23211484737540
C        -0.85591002931231   24.54334558817547    4.99479182299332
H        -0.41814220652049   24.51269673981339    5.98154734957368
C        -1.34781492075811   25.72690317241329    4.48489326172957
H        -1.30102508941180   26.62509724348400    5.08308812524883
C        -1.89746424192445   25.76826846666021    3.21286248793848
H        -2.28075950218456   26.69688134740819    2.81559206381693
C        -1.95443236276822   24.61196260652450    2.45322082836172
H        -2.38372092563421   24.63697677681683    1.46129813180906
C        -1.46220737559999   23.42315754687525    2.95692126252460
H        -1.50471378287433   22.52363448612829    2.35718225896152
C         0.03412530702478   18.82464732426742    8.06441470493994
C        -0.85933066698558   19.70095017637060    8.67917520277758
C        -1.90977162271886   19.16980436349991    9.42341539595282
H        -2.61607321249321   19.82295952853897    9.91355299347595
C        -2.06809941823179   17.80307034407311    9.55121215830230
H        -2.88865704720997   17.41412278797216   10.13536329059206
C        -1.17951552848515   16.93515237290014    8.93616408326043
H        -1.30306365837627   15.86746586240795    9.03669490330024
C        -0.13269031875861   17.44642921148719    8.19668784305934
H         0.57370032736093   16.78348887501252    7.71583244883237
C        -0.64829492103262   21.76331015475039    9.86885989492300
H        -0.38603468817614   22.81711513322111    9.75273308555265
H         0.11011670953373   21.27658766169058   10.48185556610704
H        -1.61400665148277   21.69957343113445   10.38066781110302
C        -1.84547631912830   21.68168738213219    7.80953565786803
H        -1.68236023995092   22.74579106166885    7.63565649171197
H        -2.77346535271378   21.55571131542082    8.37920213910560
H        -1.94929321033595   21.17615524043840    6.84922382036699
C         0.97060358315334   19.03419746009239    5.37533271923535
C         1.81902273373734   19.52585089287497    4.38378847642038
H         2.68224858355528   20.10953611356344    4.68325852800253
C         1.55291416367837   19.28841781843219    3.04973425662195
H         2.21881347797039   19.66860135596785    2.28842327832979
C         0.42165933550535   18.57054184182489    2.69052943471923
H         0.20432405824838   18.38953557467139    1.64818977969463
C        -0.43483997160386   18.09663228440701    3.66929791103668
H        -1.32274641163405   17.54817928205297    3.38960968951794
C        -0.16441815051133   18.32406670427062    5.00930307988578
H        -0.84334673523420   17.95371645472764    5.76443449895379
C         2.72566124695976   18.29818909786268    7.47368271292134
C         2.94883038576641   17.95993508009864    8.80748421074291
H         2.35472811716762   18.41842163028358    9.58427992520006
C         3.93630450733759   17.05194142167128    9.13908739015354
H         4.10484010921625   16.80083737687519   10.17591875024863
C         4.70517840224107   16.46482565619089    8.14741198444697
H         5.47448036363757   15.75260880083252    8.40791766528355
C         4.48310443043504   16.79304618528307    6.82078144829480
H         5.07725606259765   16.33696131055412    6.04215028592441
C         3.50312057854845   17.70896993350568    6.48173270037958
H         3.34302829424146   17.95543702492826    5.44258400229512
C         2.68380668584066   23.88034581106665    5.19533200692486
C         2.58535283738802   25.25230777293812    5.40211418759779
H         2.81683315245521   25.66639180645073    6.37338763936748
C         2.17540832425996   26.08091689920261    4.37332079830106
H         2.09772757303637   27.14488010345316    4.54199813326594
C         1.85653435119282   25.55073418673063    3.13493990494465
H         1.53214967908711   26.19913769062432    2.33458993861065
C         1.93642684798714   24.18359928848425    2.92849656696408
H         1.67195850071710   23.76578339108030    1.96780047590903
C         2.33821568211382   23.34935809901032    3.95474816701114
H         2.36954759156548   22.27949922438786    3.80387136854006
C         4.41368690460692   21.66338412493425    5.90758154699640
C         4.87003096016320   20.70316657583792    6.80765663125170
H         4.41018194920775   20.63463152971724    7.78585713357065
C         5.90708764149229   19.85699800922309    6.46615246309109
H         6.25862174352194   19.12269237410983    7.17579715096179
C         6.49244413745952   19.95512510688877    5.21419232671325
H         7.29942750746176   19.29151445671263    4.93974642241768
C         6.05026721057682   20.91421872259483    4.31853365686820
H         6.51488506787844   21.00064670469380    3.34652183052629
C         5.02261927713920   21.77559581255582    4.66323392865426
H         4.70010960459893   22.53315565206758    3.96318230043507
C         4.22335148546238   23.78775042983085    7.58538736200600
C         4.11133343386111   23.90751345942540    8.96275140239295
H         3.31547594016954   23.40588404712194    9.49293348052336
C         5.02072974849644   24.68086133215830    9.66516027606468
H         4.92481852028501   24.77342395140414   10.73699516084508
C         6.04387499910195   25.33248745047207    9.00082776607172
H         6.74952588148506   25.93800451668318    9.55108322734108
C         6.16517570383661   25.20677423553477    7.62496220353408
H         6.96505786494237   25.71166749235071    7.10235186323717
C         5.26442043812541   24.43484184161811    6.91945135318675
H         5.35789561819555   24.33468900894427    5.84594130342533
N        -0.69449589993735   21.13400530029853    8.53937623888682
P         1.41099850536814   19.50323961382463    7.08248823900298
P         3.10773049405845   22.76289438174116    6.56371331647627
Cl        1.02168413368241   24.02145605614712    8.14048679113024
Cl        2.39081517144424   21.03681489842309    9.42069188994013
Ru        1.24181918473414   21.74487785201918    7.44495643280162

