41
CSD_code = MIRJUT | q = 0 | S = 0 | Stoichiometry = C20H16N2Se2Zn | MND = 4
Zn        2.90032197900027    2.10667661187047    3.02561501462583
Se        1.49455097499212    0.18645198386033    2.61731926062162
Se        2.64646569588985    4.35996259287166    3.85574845699872
N         3.75669500422704    2.90947382766905    1.24937689779816
N         4.22490673788730    0.85167445621340    4.12348621213147
C         2.88378865544709    6.39948775979981    1.92917914547026
C         4.44941974962443    0.71253122347043    0.52095947090358
C         5.35069782925219    1.27729103390573    4.66120340336009
C         5.63003526873728   -0.76872173093425    5.87152775662645
C         4.44032758029999   -1.25156423141550    5.28987765625720
C         3.74262104070775   -0.38376232136683    4.40089571443825
C         4.22790475209919    2.16508392020902    0.26888830865049
C         3.54953520662280    4.23745576188206    1.07766620014900
C         3.15691430567978    6.99506387236290    0.69961213685295
C         2.09420978459509   -2.12660579618057    4.10320100826154
C         4.30372621728930    4.04024233819774   -1.21664034696213
C         4.50981877381863    2.70883663271370   -0.99761744668805
C         3.82458826222776    4.85920168733481   -0.17425850628005
C         6.08424258495738    0.47983207414877    5.55867504815641
C         2.53889051702341   -0.85228893464256    3.80665085453696
C         5.83847826555047    2.64017068013749    4.30553494999943
C         3.62001025803085    6.23930683962566   -0.34487819327954
C         3.94678579573810   -2.53864351000335    5.56440571698439
C         2.78739644601316   -2.96567045045433    4.97265578869838
C         3.06405088984974    5.04626470913501    2.14108444607939
H         4.88185836430188    2.06245812645652   -1.77697761712998
H         4.50657147623994    4.48576556003859   -2.17994845142803
H         3.83512910380892    6.68142381614646   -1.30611525155368
H         2.99686511357736    8.05588731153386    0.57843338617633
H         2.51425767627977    6.99814197708342    2.74933776813418
H         6.99463079986653    0.86953824150665    5.98634220935080
H         6.17067020825968   -1.40384089045134    6.55849698106841
H         4.49748229758932   -3.17236365970909    6.24322439659509
H         2.40014068353529   -3.95255469154212    5.17684577761343
H         1.17724888897323   -2.46480467648282    3.64226515229527
H         5.18144052795838    0.30776402249159   -0.17293696164363
H         3.51111941805385    0.17203094844101    0.38313854894940
H         4.78572501899353    0.54104830915728    1.54142588445473
H         6.90658487844181    2.72733213836396    4.48620023566192
H         5.32498045701562    3.38347866564001    4.91795234435644
H         5.62891251154571    2.86864377092118    3.26224664270249

