19
CSD_code = MIRKUT | q = 0 | S = 0 | Stoichiometry = C5H10HgOS2 | MND = 2
Hg       -0.23513071699236    6.93541809463209   15.41617304339090
S        -0.07442431792954    7.42226217384033   12.71742317603801
S         2.32267398082821    6.61060981202848   14.30765690445531
O         2.25600827416228    7.28302895466338   11.75712401938293
C        -0.67526507732780    6.80971950373409   17.60956855451562
H         0.28225260214107    6.76576143751848   18.12548532929030
H        -1.25181261254786    5.91338887633652   17.82210849575540
H        -1.23111550615280    7.68729333542587   17.92899304100618
C         1.59423874172951    7.10368755855189   12.86701222252243
C         3.67228086462464    7.04416677876526   11.68961420027598
H         4.11318948527871    7.33397618382889   12.65265986118531
C         3.92717868057295    5.56411950715520   11.43037812912636
H         3.53075718626816    4.96394076657465   12.24617756077410
H         4.99563246542595    5.38554911335870   11.35499136898600
H         3.44704654271273    5.26184474653809   10.50267179879378
C         4.20355362165901    7.92684846740675   10.57045662128870
H         3.73825104680468    7.64955503857941    9.62839339146987
H         5.27936374825167    7.80524628180084   10.48850888886387
H         3.97982099049136    8.97058336925972   10.77510339287807

