16
CSD_code = MIRLEE | q = 0 | S = 0 | Stoichiometry = C4H8HgOS2 | MND = 2
Hg       -1.48230502458838    3.18620414261423    7.27404915896061
O        -4.47667778157782    3.14850949196923   10.55865794933997
S        -2.01235881133610    3.12870531881064    9.97341761233071
S        -4.21397783652699    3.22255884243088    7.94676155856791
C        -0.64539188068010    3.19415070590870    5.19554371590273
H        -1.41207974870835    3.59734739612750    4.53683528491970
H        -0.40550738605402    2.17433552974516    4.90393947634490
H         0.24851328969373    3.80971285946915    5.14833727835222
C        -3.65819272024361    3.16651154383113    9.53801237062313
C        -5.88377921516573    3.17698075799279   10.32959269422430
H        -6.16097478797684    2.31131977789001    9.71591999102333
H        -6.13365906535117    4.08557812214090    9.76853561005044
C        -6.57834614728100    3.14759262886343   11.67737034378787
H        -7.65422410652621    3.16713216344537   11.53174037259870
H        -6.28197597015620    4.00925579828200   12.26914511945151
H        -6.30706280752093    2.24480492047868   12.21764146352207

