72
CSD_code = MIRLOQ | q = 1 | S = 0 | Stoichiometry = C30H36AuN4S(1+) | MND = 4
Au        9.54213887644579    1.39545509829756   25.16627693875569
S         9.20224811043139    1.12211401083959   27.40627327148419
N         9.96405765254563    1.90696782496158   23.20206534837005
N         7.78533091059507    1.45386981347431   22.47728188233543
H         7.11543882692901    1.59696030945540   21.73168404432232
N        10.79447644432997    2.67242934128106   26.29070169924149
N        10.71235626154418    2.98968575391609   28.66202634013977
C        10.36513063068117    2.43633913728524   27.51240477795874
C         8.98184798387619    2.05068335860609   22.29674123725238
C         9.19414104423270    2.81927052533248   21.13196407400537
H         8.37633053135340    2.95657907624259   20.44211582271101
C        10.42751836091187    3.36188661102958   20.88914247371431
H        10.60273073831931    3.95038878026033   20.00258043511709
C        11.46375555205013    3.11911813226097   21.79723049872097
H        12.45880046365584    3.49091035276350   21.62451575229077
C        11.18324554429432    2.40177666408205   22.92856404833476
H        11.94381633299411    2.20090801897269   23.66429457436372
C         8.16492162684167    0.11149343147078   24.49885010191130
C         7.47308146177981    0.38510555539803   23.32674633932282
C         6.41508973691670   -0.43974368909620   22.93721561192854
H         5.87472912336349   -0.21028940861898   22.03010275657266
C         6.07232478349894   -1.54162085724532   23.69179394941533
H         5.25379958252844   -2.17102220213279   23.38012641843550
C         6.78525904844882   -1.83680542088148   24.84080372982921
H         6.53360083038265   -2.69882189752788   25.43728084496477
C         7.81974913897217   -1.00677524642219   25.24072658188827
H         8.34919861882201   -1.23196746250259   26.15326890630964
C        11.51268701969750    3.78898720970184   25.81589833207079
C        12.84363130741361    3.65020586166036   25.42281490011862
H        13.34773292702198    2.70623592151259   25.57840856151134
C        13.51679511288657    4.72857643986285   24.87974707475834
H        14.55178315973822    4.62088609004271   24.59310319991372
C        12.86953759256452    5.94187623527495   24.70906294175088
H        13.39935454277674    6.78189111947495   24.28824084293066
C        11.54221761050284    6.07519246835642   25.08093592248295
H        11.03416817585715    7.01795715721218   24.94771937336493
C        10.85978592777099    5.00327941016138   25.62644362970365
H         9.82077688313212    5.09541787044307   25.91041881397534
C        11.89086913431332    3.85749426800455   28.75837328562048
H        12.38770524296518    3.82788222398217   27.78896836391780
C        11.52294003150097    5.31397650405440   29.04543968142483
H        11.07439498605339    5.41051541557120   30.03506980345696
H        10.79637532256216    5.66078841106805   28.30736526229114
C        12.78437809936900    6.17210337357845   28.97789584189717
H        13.19278525013112    6.13426905200083   27.96473205361547
H        12.53108012574726    7.21000469235257   29.19692163483265
C        13.82751039303161    5.66905462388556   29.97127624837375
H        13.44090821783649    5.77225871886138   30.98713932124031
H        14.73065059296297    6.27519685389134   29.89586509871778
C        14.16485749267506    4.20554870830548   29.70303242076895
H        14.89317770799222    3.85136465893400   30.43336742393841
H        14.61241337880704    4.11139587040969   28.71082898966207
C        12.90659372786923    3.34215365666616   29.78118460084851
H        13.15132807193300    2.30060611781311   29.56239440025064
H        12.50717998389307    3.39222757959506   30.79434662338216
C         9.94750457990609    2.78795467607512   29.90072770463938
H        10.41613233176411    3.44756516100161   30.63375926198547
C        10.02937466587770    1.36406788910554   30.45281272112152
H         9.52268981057006    0.66855049596185   29.78323466458266
H        11.07356123833768    1.05741701041788   30.53501415238940
C         9.35296802004051    1.31703535255338   31.82070920153468
H         9.88929252014273    1.96537836280709   32.51762364880324
H         9.39643974336555    0.30006996394989   32.21172122742286
C         7.90103019808337    1.77281393202017   31.71463576938813
H         7.35345498366972    1.08596954245029   31.06638928811159
H         7.43379515813292    1.75013759152993   32.69967217350560
C         7.82121923785123    3.18284239227971   31.13808325457854
H         8.31507392364280    3.88333936534942   31.81549676921461
H         6.77866043528944    3.48924716583856   31.04489121642272
C         8.49074591284338    3.23625134716316   29.76682273411515
H         8.45532128547208    4.25288772197280   29.36760933410572
H         7.95129971911809    2.58032990529093   29.08372377140152

