89
CSD_code = MIRNUW | q = 0 | S = 0 | Stoichiometry = C36H48N4Pd | MND = 4
Pd        2.00091388852589    6.56076224200329    3.53736666209297
N         1.11562508578948    5.22691752973137    2.20653047384338
N         1.29395358470029    7.99229107033710    2.41883946454788
N         2.94060680866683    8.08360058978831    4.30687212135760
N         2.69785416475588    5.45571896578108    5.15540299453269
C         1.40738183830535    3.95741888579761    1.94506053664280
C         0.46687628930813    3.39084917967165    1.04351462022322
C        -0.42323266090205    4.39674184983100    0.72680603445129
C         0.01746822253228    5.56759300349654    1.42914860713640
C        -0.44536487260755    6.85925401599462    1.20758924799586
H        -1.32320241107954    6.96553506473273    0.58549818034067
C         0.16671772276603    8.02712756820751    1.65785656513362
C        -0.18894205648613    9.40022125172022    1.46527878680203
C         0.73318837796528   10.16090222698950    2.16339752602270
C         1.64994295360790    9.24403262314239    2.76198404007457
C         2.76136251763646    9.26782729695112    3.69347084590183
C         3.80314288393353   10.15575138291202    4.10049043357935
C         4.61181327902222    9.44492863386158    4.97076478356928
C         4.06405040436734    8.12633605207144    5.07250951368533
C         4.50555894130310    7.01185811136160    5.78348633716483
H         5.38948010450870    7.13009990297244    6.39485877484435
C         3.86292904996297    5.78097640765443    5.83711071650323
C         4.14591600965551    4.73264326096505    6.77567958215891
C         3.09852027718034    3.83877534541040    6.69326288373160
C         2.22188472256269    4.33866095434766    5.69305622005681
C         2.62748683622502    3.30092233024612    2.48930287149565
H         3.27151771024859    2.98280849098251    1.66988863078026
H         2.37840424540530    2.41724959883517    3.07531671775015
H         3.17802912984953    4.01330269094069    3.11072365267296
C         0.49765755095504    1.98158078285926    0.54787256207038
H        -0.51722476729510    1.65511176416615    0.30975625788726
H         0.88372952544447    1.33000861509698    1.33550636104981
C         1.37448939095811    1.83113598397835   -0.69703563510418
H         0.98687396433380    2.43910923796507   -1.51052306638813
H         1.39810246188977    0.79329367398158   -1.02249838923394
H         2.39255463620382    2.15188988440172   -0.48961467180143
C        -1.57878814653269    4.33893226579226   -0.21449795037903
H        -1.93105791202910    3.30816569131402   -0.29222348095449
H        -2.40101414452175    4.94523158023474    0.17378567361724
C        -1.19837201137731    4.84063669281526   -1.61048982931582
H        -0.83406219682663    5.86419956319953   -1.56362237554767
H        -2.05982067352057    4.80529162438338   -2.27413204531087
H        -0.41083658132819    4.22226364258094   -2.03379465947054
C        -1.38006671049735    9.86771957212629    0.69678050775539
H        -1.55683856845355    9.19445962223530   -0.14544622041166
H        -1.19494135111459   10.86442644771398    0.29073073816477
C        -2.62890749049076    9.90633291505475    1.58144380407323
H        -2.82670078236504    8.92167062986690    1.99934923568631
H        -3.49582979137470   10.22218855484976    1.00484360472971
H        -2.48729302089734   10.60327444261106    2.40391289392314
C         0.70014850650944   11.64085527497403    2.35717118061885
H        -0.02056248263254   12.08150746503159    1.66591214217708
H         1.67677639296878   12.07384992646095    2.13634028663134
C         0.29614314700001   11.98877031985365    3.79192850659533
H        -0.70247016223081   11.61268005884791    4.00387729647908
H         0.29816412088555   13.06693643718380    3.94014236454317
H         0.98350839652691   11.53503058225645    4.50251360840624
C         4.04460243567312   11.53832811211162    3.59127699879456
H         4.82916574400814   12.01161864226709    4.18444405707522
H         3.14263542147174   12.14321966182172    3.69444086905139
C         4.47649311503059   11.50632772464295    2.12323173325951
H         5.40835602443548   10.95509570042850    2.01653547159481
H         4.62697147498040   12.51595895113725    1.74583961228839
H         3.72249746647675   11.01234592118613    1.51435328770506
C         5.86160608764875    9.89800390648705    5.64953863299631
H         5.94265960745228    9.41096870927255    6.62423663857067
H         5.82410915735301   10.97595102823753    5.82014742503443
C         7.09913346374463    9.56153565638261    4.81344773965093
H         7.15231137143678    8.49050964841819    4.63073388726527
H         8.00494618922752    9.87353512674278    5.32914342877478
H         7.05500567601884   10.06910664731739    3.85287734975965
C         5.35289378417972    4.65587056107488    7.64821114980296
H         5.18469811236498    3.92513582220451    8.44129395409764
H         5.53523078506211    5.62444446684430    8.12064961016614
C         6.58860830498882    4.24727216308221    6.84180593872106
H         6.43591615894572    3.27159708936882    6.38620049212899
H         7.46386435934046    4.19562472161594    7.48579027019578
H         6.78046838014778    4.96513387616748    6.04781326127351
C         2.88812572434575    2.57309743032770    7.45798313207930
H         1.81822172563209    2.41476159619959    7.61060819347308
H         3.35894773274556    2.65013497043487    8.44038542751933
C         3.47389600085134    1.37083340745121    6.71430551031599
H         3.01629523894879    1.27056946872587    5.73270456493840
H         3.29973236510596    0.45376976720497    7.27296104396342
H         4.54548180544476    1.49578168689691    6.57875286765434
C         0.88209844447556    3.80206033336975    5.32849014271349
H         0.43241691463952    4.43976285931583    4.56081208583787
H         0.23677890825103    3.80727465053481    6.20752471893063
H         0.94078767167641    2.77700991415041    4.96670397878163

