37
CSD_code = MIRQOT | q = 1 | S = 0 | Stoichiometry = C13H14N5O4Zn(1+) | MND = 6
Zn       -1.28719511621042    2.85769786886499    7.26429816817836
O        -2.55164497472010    2.35625727900288    8.71606646799480
O        -3.03566489092245    1.96497144720347    6.69096048139065
O        -4.15546561850403    1.03401745444189    8.24780532983245
O        -2.48842630071194    4.70561855945393    6.92307771942952
N        -0.43516714754171    0.98468199332807    7.25160533598450
N        -0.57697183709834    2.82108604719580    5.35856109597912
N        -0.01164166745969    3.91341807044773    8.37678842584113
N         1.59432020559703    5.18621182046709    9.13262487824216
H         2.41097542709378    5.77807035860691    9.15373514056063
N        -3.27987828379700    1.75619372133831    7.89475197704444
C        -0.41220089707222    0.12559490698062    8.26064769499177
H        -0.61971053211713    0.53772648195906    9.23856875809921
C        -0.15172863259203   -1.22458202701739    8.08850438900472
H        -0.14982559289975   -1.89076176965903    8.93535038028901
C         0.08852998982587   -1.68743516772862    6.80492402517237
H         0.28062651307011   -2.73348655999587    6.62289139169473
C         0.07389047843763   -0.78755472573347    5.75095544637067
H         0.25330169829773   -1.13917070240192    4.74912751698766
C        -0.19222942793558    0.55558989336547    6.00608346559348
C        -0.23818398929796    1.58933535655047    4.95664535790591
C         0.05501305141472    1.32800420374976    3.61940642226452
H         0.33098804725249    0.33904952645031    3.29503288123497
C        -0.01389077801743    2.35670745277557    2.69483097132148
H         0.20096520963763    2.16819557034587    1.65437559624922
C        -0.36307044533603    3.62587633715450    3.12858454727101
H        -0.42834554899051    4.45413625995521    2.44227438160599
C        -0.63577961481837    3.80626631327694    4.47443463308495
H        -0.91398838037342    4.77418404173572    4.86575109812019
C        -0.14909124031821    4.02874628939565    9.72922696632768
H        -0.95027568703341    3.54090258476760   10.24525869102390
C         0.84782939502844    4.82086585612134   10.21217678724889
H         1.07362091916468    5.14109708974283   11.20760530443839
C         1.04730732181235    4.62241264732641    8.04816828252243
H         1.42582416581985    4.73741155401073    7.05230571014809
H        -2.86846865728712    5.06829304576224    7.73118587641679
H        -3.23094716139597    4.48397092075368    6.34780840413129

