101
CSD_code = MIRQUZ | q = 0 | S = 0 | Stoichiometry = C49H46OP2PtS2 | MND = 4
H         5.14482801499167    5.57855753733232   -6.24191646847573
H         7.49898641625668    6.29747525258933   -6.06057341132626
H         8.71708834819067    6.03853506378719   -3.94233172243274
H         7.60918224562763    5.04323022347516   -1.97861154269235
H         3.84417828832981    0.65128527946139   -6.04923384425849
H         4.36913120245922    0.67340906233035   -8.46591033749375
H         2.85070810568503   -0.44041291926427  -10.06514486657098
H         0.82316650806266   -1.57866876998049   -9.24561370952782
H         0.29667248165934   -1.60219156164172   -6.84852569563096
H        -1.05152942926315   -0.24187672763565   -5.26497044895931
H        -2.96245147018723   -1.74858861987299   -4.92738931776880
H        -2.67402087207355   -3.84442428981125   -3.65342262907583
H        -0.45653460212845   -4.43030685014300   -2.74553143110002
H         1.46404057583493   -2.94956027980799   -3.11679060682216
H         3.93158922195337   -2.08921269178412   -5.53861191889396
H         5.79577948788370   -3.18210389752399   -4.36389443302670
H         6.04080073079969   -2.93931397885772   -1.92397982545670
H         4.39809469693522   -1.61361970403896   -0.64471101460682
H         2.52667298409745   -0.50610678438888   -1.82246909244229
H        -3.36988103718564    3.43158736056140   -4.39461661213180
H        -4.42016782911462    3.63041658343837   -6.61489084472681
H        -3.23326083605402    2.83655466881627   -8.62309863744487
H        -0.97326558134804    1.85658295301781   -8.41561874207754
H         0.07523505980875    1.64708393821867   -6.18964637931244
H        -1.74039660762974    2.84164933502985   -0.81519369667196
H        -2.17869045981556    4.97215215753386    0.34159903221705
H        -1.90346348691335    7.11044794810265   -0.85372788640909
H        -1.18765977150593    7.11999978149980   -3.21490101116905
H        -0.76107065584787    4.98813790760111   -4.38112959677541
H         0.03311117547719    0.50156430807670   -1.55612597666450
H        -1.06771390227212   -1.30892238990370   -0.25468710663791
H        -3.44623828438229   -1.82817035309664   -0.65689478244269
H        -4.72067232224113   -0.55359632599267   -2.33399867015606
H        -3.62990696258869    1.22804681326001   -3.63130296672947
H         4.04326787128124    6.03139022418734   -1.35215746035762
H         3.73036807911065    4.71159356269118   -0.22661995797213
H         5.33867598346791    5.44966642521851   -0.31025291451565
H         4.94939904305954    2.43948259388701   -0.57727551994475
H         6.44380902999686    3.37657163921965   -0.63962681538264
H         6.04888668243030    2.27444277185146   -1.95914427615921
H         2.74862348437311    6.26910209803461   -4.82974529372011
H         3.02952572255476    6.28945708250458   -3.09054347275993
H         1.69216227895985    5.34728218570722   -3.74282013494637
H         3.90353719127755    2.94562442901918   -5.62630948016734
H         2.92793658234281    4.33263212317111   -6.13001931106638
H         2.21614438563266    3.11342360655636   -5.06059259702431
C         4.89178756129875    4.11304971803185   -1.94869801729297
C         3.68929131195730    3.59994845053049   -2.78320012910895
C         3.63241608288994    4.44263705666813   -4.08725393612139
C         5.05978318374375    4.90582720027412   -4.20742276336489
C         5.67848431759649    5.46175119213110   -5.30999538524981
C         7.00054496428501    5.86484321620280   -5.20485238389016
C         7.68742188260848    5.71801876353176   -4.01148855441409
C         7.06651796037478    5.15850934588530   -2.90545524521397
C         5.75112838976065    4.75052065487854   -3.01077585950221
C         4.47277381708747    5.14500443950380   -0.89408081378655
C         5.62943033573822    2.97435662606312   -1.23868172928858
C         2.71708177645823    5.66686461334460   -3.92366859953377
C         3.14980726264963    3.65841314521343   -5.30564228140501
C         2.03440499768819   -0.46471018885277   -6.29545057669778
C         3.18217856722962    0.17659069176824   -6.76173613122789
C         3.47577331199783    0.18053510406958   -8.11154207855072
C         2.62439377110573   -0.44597041839323   -9.00885597735383
C         1.48456756101234   -1.08374174149529   -8.54886730608624
C         1.18476727525543   -1.09531961581378   -7.19727126636540
C         0.34109466802761   -1.49741026193038   -4.22650871022159
C        -0.91819104550465   -1.16811843309175   -4.72263058449912
C        -1.99424282027257   -2.01185181397209   -4.52732735592959
C        -1.83199263271576   -3.18771617577274   -3.81371973793087
C        -0.58738969028810   -3.51548971210854   -3.30490217742840
C         0.49587565263682   -2.67978647061562   -3.51228252168283
C         3.11489097209574   -1.22349976235243   -3.75453034293708
C         4.03008015114565   -1.98518057987091   -4.46774353201922
C         5.07809745704515   -2.59958503121283   -3.80472221416149
C         5.21472432444550   -2.46524051621003   -2.43337407467438
C         4.29435772068332   -1.71884107818598   -1.71482798441369
C         3.25065517912556   -1.09830668825378   -2.37295492288018
C        -1.60166885532129    2.47679742252470   -5.14730975641192
C        -2.85944220417025    3.05955854090975   -5.27252622841619
C        -3.44128697042948    3.18268377661081   -6.52110297196007
C        -2.77216629595132    2.73881033668306   -7.65139393622007
C        -1.50727074000140    2.18623121523465   -7.53639770779424
C        -0.92367136360326    2.06104475587623   -6.28878368549480
C        -1.24571718310087    3.77966503320395   -2.67799013574418
C        -1.63300018187622    3.77858668883720   -1.34323617156934
C        -1.87499155580044    4.97611766489935   -0.69511155426197
C        -1.72015913201555    6.17749953798237   -1.36602051321591
C        -1.31994452692544    6.18333000531111   -2.69290388872276
C        -1.07930431898652    4.99089470540054   -3.34617617309145
C        -1.73157877705755    0.98009964924541   -2.66091636778377
C        -1.01577365436362    0.25699573494539   -1.71014519405036
C        -1.62785783855334   -0.74798459554829   -0.98807439225615
C        -2.96359643058958   -1.03922919631272   -1.21457354489899
C        -3.67971353570596   -0.32282441849771   -2.15894024044685
C        -3.06943769058024    0.68524646130015   -2.88449988587018
O         4.59564399857950    1.37621462180174   -4.19534545194852
P         1.72031029778155   -0.33243422625528   -4.50651549916636
P        -0.77090350843559    2.25261523889927   -3.53917763954422
S         3.81119235962285    1.75840113363015   -3.00085537436705
S         2.10738979207478    3.45573598045486   -1.91962145110569
Pt        1.54935628033620    1.73943343050382   -3.44704561478776

