52
CSD_code = MIRQAF | q = 0 | S = 0 | Stoichiometry = C23H20N4O4W | MND = 6
W         9.74465325719939   -2.66097603381277   11.21719916298201
C         8.62758553084339   -4.06592467687004   12.06036569279662
O         8.05221071636052   -4.92540522039862   12.56033635936006
N        10.75752886972823   -1.10438419900930   10.10004568366348
C        10.83638516713113   -4.16227915735182   10.52366370605036
O        11.45844290594625   -5.07351301102738   10.20319247397268
N         8.44362997256382   -1.00223128776369   11.71812368894666
O         8.46057885911374   -2.62999641271857    9.37893261035073
C        10.85618444426780   -2.71604110355795   12.78361517130768
N        10.04786663144692   -0.18721660537761    9.42180796214374
O         7.39076339628730   -1.47014626802922    7.79524104671154
C        11.63170520090394   -2.86941196095644   13.84077985458401
N         8.10766396615702   -0.09851771166184   10.78265088686771
C        12.36744530329562   -2.99274969765077   14.82729850687249
C        13.20662712314137   -3.14389456075970   15.93136229045209
C        13.72090529158587   -4.40688412545623   16.25954132188989
H        13.45477170366614   -5.25697731615877   15.64915552323811
C        14.55426672216706   -4.55091904111885   17.34867587631385
H        14.94732757910468   -5.52621663202379   17.59600304634344
C        14.89048895731892   -3.45220508456131   18.12627377481033
H        15.54405241058762   -3.57162898073340   18.97735768394648
C        14.38563437192425   -2.19976241228236   17.80892630480179
H        14.64688656139513   -1.34415452554001   18.41474768543902
C        13.55048788775245   -2.03874305009269   16.72331558009799
H        13.15458494019031   -1.06569591840630   16.47121296463252
C         8.61308835142247   -0.21010573366090    9.44407511851391
H         8.22650735122394    0.61163463146592    8.83915827897464
C         8.08053050329811   -1.61698941594834    8.77840595517971
C        13.12396864024992   -1.71862397471252   10.40297874003257
H        14.07792408959283   -1.20741550618162   10.30408329065254
H        13.18824371130326   -2.67969136512596    9.89252470813648
H        12.91430656536095   -1.91478374827487   11.45541322753358
C        12.03905268114417   -0.89482463190511    9.81338972563683
C        12.14406416778760    0.17716355422758    8.91919163462115
H        13.04204222175403    0.58121223260424    8.49940560146726
C        10.85391979393210    0.60465949971922    8.67738412943125
C        10.35059296284692    1.68715157389223    7.79614337539527
H        11.19172434230937    2.17644711452394    7.31349506843094
H         9.79657065252328    2.43435235006417    8.36560426249997
H         9.69438791198647    1.28426266054619    7.02446097092936
C         7.88220711264850   -1.49008504013587   14.06631035746904
H         7.53481434026637   -0.90523705595844   14.91398287876996
H         8.92207336291713   -1.78418617235533   14.21694346899330
H         7.28452052511869   -2.39964423092103   14.00303401375816
C         7.75321212416449   -0.70308724885461   12.81428924258802
C         6.94843008596068    0.41482883837637   12.56377452905509
H         6.27637195735171    0.89182064778403   13.24690992531759
C         7.18745293290869    0.77513271247086   11.25280836809049
C         6.60229056584171    1.86633319059991   10.43508287464275
H         6.08188040006405    1.46267600236279    9.56640596960866
H         7.37276543919924    2.55558594985998   10.08735694943298
H         5.88957943675014    2.42258815884325   11.03716247626669

