45
CSD_code = MIRQAG | q = 1 | S = 0 | Stoichiometry = C21H16CoN4O3(1+) | MND = 6
Co        1.94319956990206    0.01830882822551    3.00745911692173
C         2.27087318348683   -2.70038762105098    3.86187917721097
H         1.48059468757583   -2.91703844007553    3.15532058277029
C         2.74067579590737   -3.66940775845306    4.73356384545814
H         2.32389530592753   -4.66278630054810    4.70414865988533
C         3.73102096683848   -3.33017274163406    5.64237559032639
H         4.10544885170251   -4.05567746078292    6.34748719083207
C         4.22948871560422   -2.03786156920954    5.63558518768955
H         4.99836291899226   -1.74933753991953    6.33289765444509
C         3.71084765251305   -1.11469904191230    4.73340605441846
C         4.13583423422496    0.27932912680866    4.61676858981257
C         5.12663970448026    0.86940579514183    5.39661031426591
H         5.63097013817715    0.30071124949532    6.15995659417444
C         5.45059564686207    2.19841257510713    5.19017424313905
H         6.20744739584697    2.67832841308127    5.79043860235150
C         4.78193522021151    2.89788842602471    4.19616525829511
H         5.00640598990186    3.93245802182316    3.99435275290475
C         3.80648940535432    2.24607600143662    3.46257429809097
H         3.27238396488772    2.76985500958040    2.68185721908139
C         3.42911867876426   -1.26363015817940    0.81916980538854
H         3.98140278532358   -1.78807601887595    1.58651556534004
C         3.61881621633132   -1.58101447366047   -0.51417890714877
H         4.31332857405841   -2.35780236287049   -0.78950929586056
C         2.89720402552584   -0.88874572234396   -1.47563714557117
H         3.01096084884378   -1.11753906626506   -2.52353674607828
C         2.02633513169583    0.10359362360531   -1.06246182457597
H         1.45433487396884    0.65904712735838   -1.78677384628220
C         1.88916221508454    0.36873850786677    0.29727411235769
C         1.00830523847898    1.39301214011829    0.85624352006044
C         0.18525855809238    2.23402905232859    0.11430107173474
H         0.14940401128220    2.15694402638476   -0.95964118098335
C        -0.60564349104686    3.16034401229258    0.77382196307202
H        -1.26545063745830    3.80837478933925    0.21849467703680
C        -0.53774150670964    3.23336758560933    2.15651862269555
H        -1.13589388118525    3.93830019999762    2.71031250262909
C         0.30502431240015    2.36610933605048    2.83259033929667
H         0.36741922762290    2.37265302275672    3.91273550560510
O        -1.05462401900885   -0.83316089596253    4.56203637552101
C        -0.02668733766569   -0.54018165039754    4.02837962377313
N         3.47882364310349    0.97200562670087    3.66375674193838
N         2.73881235936588   -1.45650265383483    3.86509340295865
N         2.58441431106574   -0.31920426547328    1.22622046877142
N         1.05310745096266    1.46743261829417    2.20084421575912
O         0.36620893753365   -0.88286865001894    2.80915469128700
O         0.95469012517018    0.19426927604117    4.53405480920115

