63
CSD_code = MIRSOW | q = 0 | S = 0 | Stoichiometry = C30H18CdN2O12 | MND = 6
Cd       -0.45909774381110    2.28344029213093    4.14491436014255
O        -1.15562111067120    2.74347034322541    6.14788119397144
O         0.70786743547412    3.61445339693975    5.37888150493164
O        -2.99665530642073    4.25996661623984   10.39858919991345
H        -3.63875062243508    4.28529924192966   11.12513713514227
O        -2.00658222419830    5.84214385974561   11.61492396693750
O         3.02361223912894    7.09701081049006    7.84073732031269
H         3.71810763078634    7.75697397749476    7.99219108074005
O         2.26539032525004    7.87572847077103    9.78585706982099
N         0.85669271890410    0.45283814806917    4.49312069367869
C        -0.09922789536288    4.42180995776073    7.45828847248383
C        -1.07664971692462    4.35651725421922    8.44290179966757
H        -1.89177515888023    3.65874201856829    8.32888573855066
C        -0.99742004412428    5.18921126482819    9.55572499497669
C         0.05905006910396    6.08595208311793    9.67827333428625
H         0.11917701254204    6.73431274276700   10.54000240946349
C         1.03558795898856    6.15175173667134    8.68989672610110
C         0.95514756322130    5.31848042797572    7.57784430821974
H         1.70058949061245    5.36078478939983    6.79859836760803
C        -0.19107597591538    3.53624869315228    6.24933255023760
C        -2.02193999643521    5.15259607927176   10.62717649560430
C         2.12766903319907    0.47536104139182    4.81907495072771
H         2.56927272727739    1.45712630388965    4.94025649650991
C         2.88031388611237   -0.69145193385055    5.00630796828360
H         3.92295924699374   -0.62222818269157    5.27339783131703
C         2.26898389355976   -1.91093967733959    4.84602886214770
H         2.81443322142799   -2.83367028455360    4.98357181223058
C         0.90797671156109   -1.95807985209183    4.49643385950714
C         0.23783705111879   -0.72501040924922    4.32633516586014
C         0.19707815142929   -3.17927795795533    4.31271121113461
H         0.73374315712150   -4.10654496057796    4.44935821355711
C         2.14348617319302    7.12489775787827    8.85161052098867
O         0.23709555546612    2.74298632411015    2.14167803514981
O        -1.62652661707240    3.61373069972453    2.91050989696536
O         2.07847903971061    4.25982574353365   -2.10875867197844
H         2.72058176362318    4.28514542024651   -2.83530118473552
O         1.08850057660604    5.84210959649495   -3.32505566761307
O        -3.94194459145758    7.09672725740567    0.44885042631575
H        -4.63671994925983    7.75634156639100    0.29715925787136
O        -3.18320107837448    7.87612504880217   -1.49589306948526
N        -1.77486144838810    0.45283264424796    3.79681874154219
C        -0.81898363869530    4.42169514218501    0.83150609462058
C         0.15836893066392    4.35629329970374   -0.15316240331632
H         0.97354080662130    3.65858486534381   -0.03908318542814
C         0.07928076047412    5.18913907285670   -1.26588039034118
C        -0.97708129259940    6.08601099383012   -1.38835825402258
H        -1.03741010291582    6.73410452765490   -2.25027658617051
C        -1.95373612525385    6.15168029671406   -0.40009764833890
C        -1.87358196047287    5.31806639242690    0.71171828973675
H        -2.61851637167105    5.36106284351813    1.49140996200004
C        -0.72625697605605    3.53733116754531    2.04126871799055
C         1.10385459092708    5.15257099059469   -2.33728747043529
C        -3.04585338470904    0.47534590641200    3.47090987176731
H        -3.48742637500396    1.45710770844862    3.34957393476496
C        -3.79841783214993   -0.69147152315962    3.28339396225738
H        -4.84107121520240   -0.62225301685664    3.01633429975188
C        -3.18706306950425   -1.91095443183570    3.44361430114162
H        -3.73250465304959   -2.83368896451444    3.30606806793056
C        -1.82608425225785   -1.95808661900303    3.79332046410299
C        -1.15596533019537   -0.72501373271557    3.96348396061781
C        -1.11520304911544   -3.17928162220058    3.97713020907649
H        -1.65179876088055   -4.10655127919348    3.84022770720562
C        -3.06107385158433    7.12556963164628   -0.56136728391593

