40
CSD_code = MIRTUC | q = 0 | S = 0 | Stoichiometry = C13H17N7NiS2 | MND = 4
C         4.00620409219617    7.12413243463312    5.96525820721123
C         4.48211588114876    8.42643908747428    5.89007913026998
H         4.33393397261033    9.00180329005907    4.99068236232884
C         5.15937212588904    8.95687975202307    6.98419125000479
H         5.54061014760509    9.96637653644570    6.94522279756487
C         5.34826302701086    8.18342777079650    8.10574549785357
H         5.88027032886178    8.55828200466783    8.96549328948409
C         4.83521561558154    6.87211142892298    8.13748906651882
C         3.35338092417324    6.42132435947015    4.89774839555139
H         3.15670329848109    6.87166181418101    3.93261752066005
C         2.34487304651026    3.15957609962595    4.52025951755141
C         1.61118011525689    0.92581462157646    3.85767752852799
H         1.95476304375655    0.67075331677045    4.85674215849484
H         2.17229349521437    0.34008647505637    3.12549290677072
H         0.55078173727381    0.67770030644228    3.76494134535351
C         1.41869930662989    2.79895578928617    2.31168035748384
H         1.59584570346445    3.86866826154289    2.25082965435008
H         0.35910882382046    2.59137634334172    2.14456217887642
H         2.00078851209350    2.28749764147022    1.54105784348251
C         5.00058135047377    6.04573194180378    9.29908146585535
H         5.54678049457593    6.44693824069806   10.13909716188330
C         3.45301009900564    2.89892442548505    9.15430261106571
C         1.66530779145295    1.29440533654661    9.51969472986545
H         1.15699251213635    0.79881049548751    8.68974553999354
H         0.96712367973014    1.40746337568807   10.35202999820074
H         2.51014806204465    0.68823580341599    9.83909546163978
C         1.11407376258953    3.50341583430929    8.67861925194639
H         0.60192128769427    3.92662663326571    9.54856366665297
H         0.38977248003632    2.97148282215038    8.06031647790659
H         1.53868465586032    4.32991830703918    8.07697511765465
N         4.16995119107793    6.38046731713937    7.08775812811175
N         3.05452024083899    5.17565444803596    5.13795898800369
N         2.51252676877489    4.43364991624515    4.18920801426498
N         1.80832731761520    2.33033791758066    3.61884813370452
N         4.54041862963030    4.85486324044902    9.46632891236439
N         3.83202815251017    4.15544735249198    8.64604469243229
N         2.14570696759659    2.58434057861041    9.09805979444852
S         2.81529774911498    2.56364437063113    6.07656633549804
S         4.59506929063112    1.91576697756774    9.82788942047521
Ni        3.42245431903187    4.60000733157227    6.88754508969343

