35
CSD_code = MIRTOZ | q = 0 | S = 0 | Stoichiometry = C15H14ClNOPtS2 | MND = 4
C        22.70335378957616    6.84316423443796   11.01503043384602
C        21.78278088373973    6.23883498347671   10.16761378325091
C        22.39384386248854    5.37015864787590    9.19403287750759
C        21.86113758931397    4.58780048145721    8.16735230033475
H        20.79989437716125    4.55878869770994    7.98336707802497
C        22.69393328209950    3.83688958686737    7.36512871364820
H        22.26765247202006    3.23686452925948    6.57462128548596
C        24.07292023324650    3.83795696270760    7.55383439610819
H        24.70402536288392    3.24124566441151    6.91305839318612
C        24.63150873926401    4.60188950197140    8.55723303123767
H        25.69751911553650    4.62009414468655    8.72139462938326
C        23.79408170210305    5.35662791181345    9.36228798684930
C        19.04708080178849    7.89747404779701   11.81508586455542
H        18.99479913538235    8.59748483410383   12.63945746305340
C        17.89931954264364    7.47269550958355   11.17619823914763
H        16.93656792872184    7.83669724876666   11.49381782494054
C        18.02387174527011    6.57123596042809   10.12546955786100
H        17.14919516027974    6.21394896410078    9.60323759068488
C        19.27836800478978    6.13677137241253    9.75691178267500
H        19.38787512524530    5.43780971820891    8.94758060421601
C        20.41413446392587    6.59767205564571   10.43216276668251
C        24.10305325933696   10.47843855556148   13.39887257013606
H        25.02503001891890   10.69226416042793   13.92696269150941
H        23.24502324385789   10.92276712171519   13.88963894755819
H        24.17322882157078   10.82128335538047   12.37137609789273
C        23.86050205037522    8.35629770815525   15.15378848701022
H        23.75618332413464    7.28525846014260   15.29644302961639
H        23.01752506586534    8.88080031485570   15.58838936436553
H        24.80333556825657    8.69708309523765   15.56558053235586
Cl       20.98086635597408    9.48839873696270   13.94470382415547
N        20.26194003546124    7.48041960559429   11.46333331068985
O        25.10145619973786    8.10349646288780   12.84202614330062
Pt       21.94844846630578    8.06979359669635   12.38265933326146
S        23.87164421242160    8.67496242857695   13.36334130458402
S        24.31910006030155    6.38813134008672   10.67780776088584

