60
CSD_code = MIRVEO | q = 0 | S = 0 | Stoichiometry = C27H30ClPPt | MND = 5
Pt        0.71843547214585    1.04435549763605   10.75284428247889
P        -1.42444783236845    0.33494415505098   10.83269916142882
Cl        2.91375866890490    1.67532904702020   10.50665588649686
C        -2.48758512605193    1.72720024192304   11.47762909239639
H        -3.52643078677479    1.39446464554829   11.56834139967612
C        -2.37350083549278    2.90481042769614   10.55877213099692
H        -3.29501978595422    3.31956505572250   10.17247440212296
C        -1.20739401955087    3.46683432775512   10.20843599857656
H        -1.23550734636679    4.27318305863012    9.48527369692525
C         0.10646383967739    3.16841547813439   10.73470737438385
H         0.92663532514154    3.67658140152721   10.23064698587325
C         0.33617126236352    2.77072806681229   12.05947350186850
H         1.31446604826310    3.00095596371333   12.47675210294178
C        -0.71646325058383    2.59420556999433   13.03255656024614
H        -0.44772387224089    2.85667621793535   14.04894437214466
C        -1.97784386947271    2.19550719530096   12.80491259071159
H        -2.69354387815317    2.21666281171370   13.61642929367267
C        -2.02577420564421   -0.11405022096403    9.14707156863757
H        -1.96903178354334   -1.21281719012895    9.08973635882218
C        -3.39258311412905    0.32104314249486    8.72226703006317
H        -3.89426217937952    1.10551468996977    9.26768745679721
C        -3.97748063549858   -0.25164561813709    7.66250659539280
H        -5.00469796642323   -0.00444712092197    7.42592749096676
C        -3.32573246479717   -1.16167686617942    6.76335139002755
H        -3.96593776071914   -1.86203260744482    6.24222680171477
C        -2.02609249760293   -1.08049704502399    6.39947136971497
H        -1.67483583792606   -1.72199147724592    5.60149269874526
C        -1.10472869131872   -0.08231621820458    6.86448911712035
H        -0.36403342865544    0.25314407903314    6.15158246338631
C        -1.12540225454810    0.45370855782430    8.08997235349928
H        -0.47200843529643    1.28237595047421    8.35378427958454
C        -1.89284433362710   -1.17744528264111   11.76588116890633
H        -1.24534412043849   -1.97089494198662   11.35806244113776
C        -1.65746839746518   -1.08428561640506   13.24132830642079
H        -1.50534982271565   -0.10826159271373   13.67916069463817
C        -1.61717119034757   -2.19225548265735   13.98891069210631
H        -1.34227964219373   -2.11810830770776   15.03298540029408
C        -1.93788033078890   -3.51059993181417   13.51461528046610
H        -1.46834833968425   -4.33248819787128   14.03956347903076
C        -2.88377021898308   -3.79344924808469   12.59346562241970
H        -3.13703148932063   -4.83051037327212   12.41490299970651
C        -3.71720558142834   -2.81873851758123   11.94437424062487
H        -4.73348322882764   -3.12716836348908   11.73433663570968
C        -3.32722988238512   -1.58205303137571   11.61674033820031
H        -4.03607986418056   -0.86689468766832   11.22275769824967
C         1.14124769205680   -0.78182432595104   10.16359829387421
C         1.27743429874912   -1.91105390277569    9.76072142989972
C         1.45430045573365   -3.27382964464171    9.26305568799715
C         2.75586743569618   -3.85684624787805    9.82212588157316
H         2.72221390524241   -3.88214970018399   10.90919543884362
H         3.60161638846236   -3.24278637646185    9.52217833296280
H         2.90750530029498   -4.86937679862169    9.45166678086611
C         0.25956365931806   -4.12427738992373    9.71541849171123
H         0.19210164432383   -4.14003160420653   10.80195589405852
H         0.36991348273269   -5.14721036871862    9.35990289262638
H        -0.67001389590200   -3.71841279073904    9.31830384773470
C         1.51034196558864   -3.22466258437016    7.73165194423601
H         2.35146111993052   -2.61687195163621    7.40702661116215
H         0.59767958924470   -2.78378587272341    7.33478499133251
H         1.62398464294783   -4.22815808356125    7.32501267577167

