103
CSD_code = MIRWEP | q = 0 | S = 0 | Stoichiometry = C52H43F5P2Pt | MND = 4
Pt        2.78282596110022   -1.54462318326019    3.00320558217188
P         2.24119617925729    0.30648412390985    4.22308424100298
C         2.50693429267165   -2.68439952150046    4.62247874225420
P         3.36180482750352   -3.40959326605677    1.82354649055922
C         2.34105015721646   -3.39473055959607    5.59666096529583
C         2.14815527061434   -4.18436849909506    6.68741952707579
C         1.97565644407929   -4.88619540181015    7.65233729049559
H         1.82545242235949   -5.49816820120927    8.48992703466403
C         3.04087997805054   -0.38633038012243    1.32923474233898
F         5.17970914047457    0.36636750534478    1.95606585714638
C         4.16386225031766    0.38369732599613    1.06015446298889
F         5.40493089567215    1.91091830676251   -0.27833281010514
C         4.30119362663774    1.16758885281685   -0.07480705655088
F         3.39730157679515    1.92447194447140   -2.13180901852125
C         3.28123783078223    1.18046251662141   -1.01617969476163
F         1.15226080152371    0.42157836104498   -1.71231188544583
C         2.14065974075794    0.41910793968798   -0.79871922904327
F         0.92031355745371   -1.05450481519689    0.57794468659774
C         2.04542773705483   -0.32927076527283    0.36286566552303
C         3.43507141461437    0.41249109276363    5.58184231343475
C         3.19524118954040    1.04710998821829    6.79276692032303
H         2.23785642957055    1.51173103161700    6.98204925125841
C         4.18306881491917    1.07226868057348    7.76009011212784
H         3.99275998508110    1.56477988617477    8.70332948690343
C         5.41758196538416    0.47177794862217    7.54088430249477
C         5.64603644546503   -0.16662235789568    6.32562774131806
H         6.59951865224902   -0.64140839098509    6.14391794035703
C         4.66523890428408   -0.20085224844408    5.35620740252224
H         4.83971378585940   -0.70202993006564    4.40512421544933
C         0.60490954830877    0.48805553535245    4.98029649333261
C        -0.17575906012631   -0.64471820624739    5.18569790604711
H         0.20472880489388   -1.61049867660606    4.87767421365262
C        -1.41543736922308   -0.53063736434969    5.78238263336609
H        -2.01750711707502   -1.41367643106255    5.94146311778694
C        -1.90340520613520    0.70969422624309    6.18287681943809
C        -1.12083229170368    1.83735356189328    5.96401984566884
H        -1.48890865080429    2.80882862555786    6.26312620894971
C         0.12134026624668    1.73406016824971    5.36681907692502
H         0.71443497263447    2.62171538410902    5.19017433920366
C         2.45272302005934    1.86115782580749    3.30922527054284
C         1.48849829330384    2.18336125041958    2.35597636019495
H         0.58188876380378    1.59357494300724    2.29950155732361
C         1.69223983684368    3.23477049469673    1.48668482815945
H         0.94169932454200    3.47140196034752    0.74579387467887
C         2.86503183573550    3.98273918604377    1.53881824584026
C         3.81359611509830    3.66718856007859    2.50467969347606
H         4.72763464835192    4.24100086242118    2.55803745051606
C         3.61759584637241    2.61499269330448    3.37995949178262
H         4.37581001658843    2.36718691563033    4.10965249604709
C         3.51904843248686   -3.12239566287592    0.03791614052604
C         4.65843690119888   -2.46099413760878   -0.41700812348921
H         5.47772566384303   -2.28349989966763    0.26846488348544
C         4.73679823184057   -2.02765988437619   -1.72411076315002
H         5.62184832804239   -1.50945998533091   -2.06529092043752
C         3.67859920302632   -2.23086504501068   -2.60559621899901
C         2.55306679697926   -2.90687204810353   -2.14955256986084
H         1.72475393118676   -3.07401787135889   -2.82297753769554
C         2.46638061547360   -3.34557515794463   -0.84113888293015
H         1.57434149317740   -3.84901206199814   -0.49519531202709
C         4.89263070321575   -4.27804463688343    2.25355931792764
C         5.42927691543469   -4.09934284536333    3.52448314972527
H         4.92534785402653   -3.44164520844384    4.22209525654341
C         6.58418300553147   -4.76295891293995    3.88733448144782
H         6.99565039236608   -4.62191776695054    4.87649670304869
C         7.22851431530037   -5.61362247787005    2.99421724368125
C         6.68940228625875   -5.78016834828139    1.72373927478808
H         7.18141753581393   -6.43383487853910    1.01709552256611
C         5.53388081653537   -5.12004138941414    1.35053655625957
H         5.13272774265912   -5.24898553977914    0.35390466626037
C         2.03468846996746   -4.63399085831900    1.96834317049983
C         2.21762548770829   -6.00348126122194    1.83415313443303
H         3.20388893797013   -6.40354658665385    1.64565613104677
C         1.13418078750654   -6.85374533016507    1.95478568959082
H         1.27940131965484   -7.92011984354977    1.85360221419319
C        -0.14063292531992   -6.35971339403827    2.20745575495182
C        -0.31229165495899   -4.98571004241025    2.34373302128725
H        -1.29708646058987   -4.58909820190856    2.54463686952790
C         0.76352017810120   -4.12944411486442    2.23001477924497
H         0.63440554891922   -3.05518549479937    2.34285184639997
C         6.47259659412618    0.48451952544896    8.60350547020341
H         7.46686210983444    0.49708109365105    8.16280564573871
H         6.38825833254133   -0.41269237708330    9.21766354906748
H         6.36115817683298    1.34926190931710    9.25354149752132
C        -3.24960953716389    0.81517196727959    6.83002131186231
H        -3.47497260052164    1.84325163326927    7.10154588921217
H        -3.28537615462967    0.20037488326100    7.72840734916060
H        -4.02354082495494    0.45629622957856    6.15260690600353
C         3.11827954851406    5.07545916630442    0.54850124763941
H         2.18453894031800    5.48979487725316    0.17580491215289
H         3.67298186708819    4.67648552411378   -0.30171078517494
H         3.71281353318328    5.87214577220816    0.98965668048180
C         3.73634745584251   -1.69383583421967   -4.00095708912131
H         3.14331833917922   -2.30278167877552   -4.67916627414344
H         4.76160410735095   -1.65126463215504   -4.36119446174771
H         3.33172793502754   -0.68104084366634   -4.01958916819132
C         8.48809226692287   -6.31605816970637    3.39686023827116
H         8.75855614110066   -7.08132937263781    2.67379104156072
H         8.37089171425829   -6.77970031186293    4.37461277612878
H         9.30870628910254   -5.60170491200863    3.46439414244088
C        -1.30258358509693   -7.29164089874486    2.36105402464408
H        -2.22735293396264   -6.81518299304977    2.04389653177165
H        -1.41162029285856   -7.57455668025914    3.40868153664977
H        -1.15343015038749   -8.19969448988022    1.78119634640518

