47
CSD_code = MIRWAO | q = 0 | S = 0 | Stoichiometry = C28H16N2Pt | MND = 4
Pt       -1.06722962663686    9.29823361211836   17.94660246985073
N        -0.26949143589777    9.02820676961185   19.77108734017325
N        -0.21975642243425    7.49812401965734   17.66608397230565
C        -0.35770982301801    9.86530664773929   20.80513397258488
H        -0.89829821751502   10.78476512076904   20.62264507154405
C         0.19907067164689    9.59375762369345   22.03814532566555
H         0.10035777406554   10.30242873871212   22.84432058356334
C         0.88319730259611    8.39544733264917   22.21583339520350
H         1.33015922978326    8.14896471755091   23.16665609462851
C         0.97925177637833    7.52420641992728   21.14957708402606
H         1.50242324323482    6.58885379624137   21.26447062665880
C         0.39368796937553    7.86035103325165   19.92820867074782
C         0.43547381545917    7.01017302308268   18.74352952246490
C         1.09394692578431    5.78094793218840   18.68914405005907
H         1.61651085406560    5.40338874730129   19.55295523397885
C         1.07639903249706    5.04793033198911   17.51968659751357
H         1.58167488518415    4.09623269513730   17.46210066023485
C         0.39570963825331    5.56196785306253   16.42064344692305
H         0.35638225905271    5.02191799646875   15.48866432011163
C        -0.23351743018355    6.78417750780415   16.54010913841659
H        -0.77392073612201    7.22175267252403   15.71099264831006
C        -1.85187093196179    9.53030686070117   16.17316336482505
C        -2.40260863059012    9.79827750905056   15.12226541104207
C        -3.05666464728947   10.15955909612836   13.92619590236428
C        -3.05124581628982    9.33321728518514   12.80224197623819
H        -2.52684496959537    8.38877647260448   12.84840431556526
C        -3.70482511707028    9.71233706409214   11.64686699649578
H        -3.69327289314419    9.06322630951469   10.78271780387472
C        -4.37858040669427   10.92628686379946   11.59124040784294
H        -4.88939433794789   11.21826918866177   10.68485982820563
C        -4.39661221481956   11.76022516282038   12.69108369233547
H        -4.91876105902697   12.70602139298342   12.65390431824857
C        -3.74080626884252   11.39471752741036   13.86757064432273
C        -3.75215330661308   12.24077592780870   14.99065625544389
C        -3.75427601344997   12.96381781804525   15.96068460868182
C        -3.74675694453898   13.79994816157325   17.09119384947379
C        -4.39843388266183   15.03394901552178   17.07125596758517
H        -4.91497681021005   15.33979421768885   16.17229420799123
C        -4.38300402260581   15.85213802542852   18.18285905496371
H        -4.89004087731105   16.80613825086391   18.15753868923292
C        -3.71612842880205   15.45232872298147   19.33442314629649
H        -3.70615109547853   16.09737032998946   20.20163031702881
C        -3.06715657811121   14.23455328300550   19.37363533369639
H        -2.54753319128530   13.92092785498690   20.26850791445636
C        -3.06998551852925   13.39105036356410   18.26246396268749
C        -2.41719912834219   12.14098386324704   18.27194662731457
C        -1.87053859435856   11.05496884086133   18.23540517882102

