66
CSD_code = MIRXUG | q = 0 | S = 0 | Stoichiometry = C20H40ClN4Nb | MND = 9
Nb        2.40933203511695    5.83164830022596    5.52258120435766
Cl        2.89260503621375    3.76513749058884    4.44891973352970
N         4.18283343390405    6.02042216885116    6.44977226055655
N         1.95950287446378    4.68625279224886    7.21345215571428
N         1.34196773809968    7.40125541012758    6.31163444071049
N         1.58165508215815    6.68730569020436    3.84586804428509
C         4.29921758720233    4.88187102221131    7.20039585232597
H         5.27705700382271    4.50492061710156    7.47764453316226
C         3.16983613701353    4.20500079683480    7.56773322372035
H         3.25446350132956    3.29965014216327    8.16228823474397
C         5.40508463510754    6.74578370852780    6.12383621241915
C         6.18867792344650    5.94530505851796    5.06638031781351
H         6.45855531647137    4.96409804163629    5.45318919553230
H         7.10027633004529    6.46875380679588    4.78721979178556
H         5.57245177878591    5.80465246857734    4.17792441404210
C         6.29778888332571    6.98479119480430    7.35399719709565
H         6.77905152025629    6.06823889233544    7.68365534218751
H         5.71014299225143    7.37961602692667    8.17968811880979
H         7.07561928964142    7.70188446176974    7.10320438952152
C         5.01057527509062    8.10916214169826    5.53559903065930
H         4.19405782307286    7.98601047296179    4.81696785840385
H         5.86332832519222    8.56375897072199    5.03602445708221
H         4.67646560899114    8.77874788638674    6.32531411841877
C         0.76854537547121    3.93178843922764    7.56605558143347
C         0.49891411785194    4.01882431609580    9.07747616719359
H         1.34597054279536    3.62701572796872    9.63654081239543
H        -0.38459593491498    3.43987223621608    9.33532864275766
H         0.34210339158529    5.05178650421527    9.37862605758483
C         0.89571226435994    2.45175309065459    7.15446821641481
H         1.26300776039476    2.38162615452821    6.13123895543941
H        -0.07567893317502    1.96562386353123    7.20971111720425
H         1.58071053452332    1.91240671929714    7.80440861733691
C        -0.40786618507905    4.53762741906788    6.78660802948238
H        -0.24233540057269    4.41165018718116    5.71061383406477
H        -0.50591295862107    5.60004020184286    7.00227543651807
H        -1.33581013915825    4.03673122760345    7.05550790025887
C         0.35620689772122    7.80724980444238    5.45534941945341
H        -0.45241651474248    8.45126289034314    5.77329330318989
C         0.46813979490553    7.40668195185001    4.16328957150036
H        -0.25828696130368    7.69292557344215    3.41396756739577
C         1.37102497041440    8.15544767684921    7.57066752499532
C         0.05017596941118    8.06434240843282    8.35728536884936
H        -0.79566040375804    8.44319120269317    7.79120505940425
H         0.13253683317635    8.65315325448213    9.26786842447501
H        -0.15264134438247    7.03354462461209    8.63318698535723
C         1.66507129169044    9.63334315192357    7.24860241029346
H         0.82035871133805   10.10152611646646    6.75094020761437
H         2.52555346938838    9.69620728038836    6.58652277895293
H         1.87677551478089   10.18489147360368    8.16142582415654
C         2.48106219575888    7.62729770393655    8.48060965486150
H         2.33355833616047    6.56936142153947    8.68040795705040
H         2.47713663759986    8.17018650052818    9.42356864594998
H         3.44508438123118    7.75775032470248    8.00080212675161
C         1.86386487413146    6.53392747227924    2.41439086007279
C         1.53577898883842    7.81320288236757    1.61909543537565
H         0.46912794574354    7.92276984046090    1.44280639410577
H         2.02690305817735    7.77459290043227    0.64972324728384
H         1.89326394802987    8.68927404942199    2.15781288512769
C         1.04952320062964    5.35253638883017    1.86310540085775
H        -0.01569388897727    5.52877125776686    2.00869332421895
H         1.32613650610184    4.43909857614066    2.38799489188231
H         1.24084455288214    5.21875698667959    0.80090726962634
C         3.36269467948754    6.25881502328467    2.22818757148394
H         3.65482616783094    5.34984732575048    2.74874677201455
H         3.94489163743000    7.10290621929288    2.60081679267370
H         3.58484798383652    6.12542406732005    1.17117683009381

