58
CSD_code = MIRYOB | q = 0 | S = 0 | Stoichiometry = C22H30Cl2O3W | MND = 5
W         4.40013809306599    3.90626916979423    5.46035181606399
Cl        1.98085437734425    3.78442148421780    5.43078794158941
Cl        6.61711790382359    2.93354389264170    5.56244157476957
O         4.70076425962627    5.54608823109127    5.34977203090358
O         4.25576231279844    3.38835001292562    7.15577794853664
O         4.31099183719859    3.15640885071591    3.85010119754640
C         4.12511748307544    3.03347854544331    8.44882587967614
C         4.27866322813040    3.96206439263583    9.49268641919052
C         4.12286745147832    3.48438870531735   10.78810338720177
H         4.23164130023772    4.15382579000037   11.62442301052451
C         3.82762426476462    2.15748683794076   11.04807240280296
H         3.71423969779048    1.82635456491908   12.06911967053061
C         3.67653943424150    1.25755232681509   10.00919564097571
H         3.44428932012412    0.22231218476400   10.20967772394390
C         3.82398473066148    1.68600563431468    8.70358458023215
C         4.59530573788688    5.41969902937781    9.18083540610554
C         5.92972172546109    5.50596758680997    8.41843758177323
H         6.71289389182745    4.99298349868349    8.97433313493540
H         6.21540585964100    6.54873408994973    8.29770804472835
H         5.86863200486998    5.06321521381054    7.41044782011279
C         3.45044461681798    6.02044410898607    8.34606807923817
H         3.63476912833157    7.07958993092539    8.17962876538196
H         2.50475112767354    5.90985900920607    8.87416420774816
H         3.35487171130634    5.54249165563599    7.35699376515528
C         4.73470257953962    6.26519389495008   10.45283943409044
H         5.54639090338413    5.90115168719134   11.07772884681377
H         3.81159742539240    6.26579790606875   11.02690800288802
H         4.95819225466457    7.29320415362311   10.17741282786055
C         3.67622477840603    0.77687999023934    7.52012754218372
H         4.61355661717123    0.75259150044292    6.95358569067267
H         2.87922035167976    1.14873453769311    6.86619858590123
H         3.42968280223672   -0.23465954882546    7.83051039861229
C         4.28239798954711    2.61161470129307    2.61836053823578
C         4.45720653406562    3.38721536740317    1.45933582424514
C         4.40952208407642    2.71934913078049    0.24185440032685
H         4.53699086398525    3.26672136599866   -0.67657747633817
C         4.20120616475457    1.35330579264640    0.16444896195602
H         4.17150781172267    0.87231395966693   -0.80137430676742
C         4.03255705735007    0.60467880567858    1.31470425868739
H         3.87120823305586   -0.46135579241358    1.25642826119325
C         4.07096008269867    1.22534722756667    2.54887679344951
C         4.69160219909734    4.88882101391848    1.57079779674050
C         5.98947178118094    5.14350615162734    2.35774642512998
H         6.20447103432917    6.20978849500452    2.37472313924414
H         6.82226132110791    4.62745402579086    1.88278676543820
H         5.92057544559537    4.80391163060124    3.40458058749152
C         3.49013840361714    5.54709626889810    2.27249576343952
H         3.40120411421269    5.24443165635575    3.32898480920785
H         2.56652849038271    5.28460950123436    1.75908675973008
H         3.60284732678115    6.62897588103817    2.25348143573431
C         4.84485967596789    5.55272869312538    0.19673443506445
H         5.00818577965774    6.61955536148813    0.33015198188934
H         3.94749911595899    5.42312267605719   -0.40307333838621
H         5.69842325533809    5.14827046463207   -0.34136293998803
C         3.89833406962032    0.48869451920409    3.84368457048063
H         3.74893478275890   -0.57396048379834    3.67391057571910
H         3.02978889772848    0.88490364839969    4.38127001170097
H         4.78975827475720    0.62387106949832    4.46679460769062

