52
CSD_code = MIRYIX | q = 0 | S = 0 | Stoichiometry = C15H24N3O6S3Y | MND = 9
Y         5.16951752821089    2.92844107874795    3.06403904632433
S         7.68866769399462    2.68434605322175    7.11536730184040
S         1.27601789584688    5.51569337819792    2.39248836351569
S         6.53205697536018   -0.77363980602124    0.29112722274931
O         5.60096951033842    3.62679488964628    0.45925968852586
O         7.59922961847451    3.63631320319289    2.33911584036692
O         6.11391720177221    5.25566585415847    4.09928933897671
O         4.01813176598855    3.89075982600593    5.32477110085749
O         3.01891698696469    1.65148564131026    3.88728286411840
O         3.33050894087272    2.18346694255287    1.17140582411662
N         6.22305441375520    2.27659423480511    4.81115923723491
N         3.84877714249295    4.52359966595285    2.55812170832529
N         5.75822867076031    1.06511575284860    2.19953248832260
C         6.84230044015806    2.42838539320359    5.80310429708620
C         2.75179869824689    4.94629870355007    2.46811216290579
C         6.10687399429369    0.26307958528421    1.40831683919123
C         6.92700523774585    3.30095604825887    0.06808054443844
H         7.11048710869030    3.62383424320338   -0.96594426787764
H         7.11954512794993    2.22421614957302    0.15425777262219
C         7.84721821732655    4.07533468853707    1.00983013963363
H         8.89832784838901    3.88865922086313    0.74682424056712
H         7.62741797364305    5.14649417874408    0.91091059478044
C         8.25999615746616    4.40415059699276    3.33654928504597
H         9.25427835176065    4.71271223198076    2.99053344361625
H         8.36519305709050    3.73652059945025    4.19684685744849
C         7.43711510906455    5.63684098342873    3.74603584814879
H         7.93952937721155    6.14162204149397    4.57653042186275
H         7.35717479793790    6.33486637168123    2.90195144725068
C         5.74181424455070    5.53783272844214    5.44402691095133
H         6.30836686507411    4.90649529592743    6.14092883888641
H         5.92876530435422    6.59644460909861    5.66988210631493
C         4.24831305397043    5.25982682309587    5.60431870574746
H         3.67556170732308    5.89024172441502    4.91056670689731
H         3.94941810007206    5.48885688130171    6.63752375526756
C         2.67499388300710    3.47532197970924    5.50173418665971
H         2.00794763461665    4.02051980467682    4.81864764925688
H         2.35391732350592    3.66077398967715    6.53736001300379
C         2.64758220824654    1.96915498411994    5.22102293202629
H         1.65767206875081    1.55873850725964    5.45255070116844
H         3.40507532847484    1.49363505007577    5.85374019909071
C         1.92875281100039    1.57467407716067    2.97349062266550
H         1.43650558493095    2.55019630884763    2.86526491387554
H         1.20054668052727    0.83210456622601    3.32863439049303
C         2.48162369324512    1.14433139992594    1.61662524032897
H         3.04289098598060    0.20479991128616    1.72080604256931
H         1.65168754420155    1.00080723835530    0.90953391948911
C         3.82622280710194    2.03361202147981   -0.14841226031316
H         2.99228535399650    1.91132070166730   -0.85491664564221
H         4.48864059675018    1.16122564121143   -0.22101758364243
C         4.57439226336063    3.33111429934357   -0.47393395184646
H         4.97350301305301    3.28703067170849   -1.49305461992470
H         3.86196510210016    4.15913303412736   -0.39072242531853

