50
CSD_code = MISKAA | q = 0 | S = 0 | Stoichiometry = C21H22Cl2N2O2Zn | MND = 4
Zn       -7.31297767113702   -3.99798554323407  -17.62941474195869
Cl       -6.64397019217237   -2.05431997655822  -16.82143346924013
Cl       -9.22013269002113   -4.61023653490706  -18.48370803322037
O        -3.67906600377493   -5.77751449650856  -18.85274134922618
O        -5.50046414141221   -6.28141316101960  -14.62275063449461
N        -5.58806728798010   -4.68312970068132  -18.60385353176572
N        -6.81080120308118   -5.38629285714100  -16.16825298915776
C        -5.43138763057347   -4.76589273076585  -20.04862259113308
C        -4.07382827939458   -5.49565334871076  -20.19590257270924
C        -4.61221795011605   -5.27443439363107  -18.04423484943388
C        -4.36693060899840   -5.40449207705400  -16.56817958006860
C        -5.63099638347309   -5.68708339864576  -15.80972573679047
C        -6.80975588996121   -6.40990138445009  -14.06281856055044
C        -7.73583794949389   -5.72644408006784  -15.09537385073910
C        -6.60387501009949   -5.50811441301418  -20.64039544611235
C        -7.42457762383796   -4.90163348581001  -21.57960614428866
C        -8.51857981889138   -5.57916231142286  -22.08746468640144
C        -8.80080431201163   -6.86369260600936  -21.65812639921946
C        -7.98522103293004   -7.47322189161822  -20.72055534143718
C        -6.89072988380831   -6.79888042685889  -20.21313458485620
C        -8.39998085739360   -4.45480046513467  -14.62376383413090
C        -9.73668197891004   -4.21727765070187  -14.91641303086864
C       -10.32823574233705   -3.02510586848783  -14.53664810431366
C        -9.58995631073753   -2.06410817336119  -13.86795116936436
C        -8.25565002318395   -2.29424974687263  -13.57982984822544
C        -7.66062994798478   -3.48310280360643  -13.95878596264030
C        -3.83431488063258   -4.04571762932306  -16.06612351770656
C        -3.34118850836626   -6.51048139213254  -16.29745614953260
H        -5.39860171962929   -3.74820949770778  -20.45012175117151
H        -4.16179391929294   -6.43993550310267  -20.73959045485126
H        -3.30332869435961   -4.87637278883159  -20.66047884126695
H        -6.82488863688887   -5.91625553188338  -13.08840995422549
H        -7.02642396028995   -7.47343132723608  -13.93585358908007
H        -8.49241259142694   -6.40703030795593  -15.49703512273611
H        -7.21453887406943   -3.89248032378959  -21.90314294382885
H        -9.15945333589592   -5.09606293320461  -22.80924825889242
H        -9.66289962763917   -7.38608115376277  -22.04435069870175
H        -8.20885722063077   -8.47137147069302  -20.37425547248776
H        -6.26551426577926   -7.27040791863799  -19.46629384171794
H       -10.30896713034521   -4.95809654967948  -15.45450602597908
H       -11.36507611918666   -2.84384298187576  -14.77658448318591
H       -10.04963476577645   -1.12944644178177  -13.58330021607774
H        -7.66969066408681   -1.53973125670973  -13.07761007538097
H        -6.61047144883175   -3.64052321573553  -13.75595893754963
H        -3.62080959023841   -4.11144735018541  -15.00218063483501
H        -4.56916247583287   -3.25938050415342  -16.23773190156944
H        -2.91695169185972   -3.79610019559578  -16.59335260345014
H        -3.15947338550017   -6.58701554494661  -15.22929448896616
H        -2.40788585721484   -6.28082523416651  -16.80337254175000
H        -3.70420421247482   -7.46980942063283  -16.65916045271840

