86
CSD_code = MISMIM | q = 0 | S = 0 | Stoichiometry = C41H38CuNP2S3 | MND = 4
Cu       11.27704696921346    1.41145159922087   10.80439254552954
S        13.37615522682453    0.55305655287144   11.35239094594549
P        11.40210850205303    1.82726435796154    8.59032754887081
S        12.44577573792248    3.31570758058582   11.64716288789533
P         9.42316399443975    0.77511710960444   11.79371980834153
S        17.41017902287094    3.54213861988010   10.52095957623085
N        14.92071319794769    2.54931379470873   12.13133956333665
C         8.04917444532729    1.66599599992466   11.01583779989460
C         7.71140975369878   -1.43791757682250   11.29644417601114
H         6.88395953662182   -0.74244942298586   11.25779823526824
C         9.00077971669338   -0.97315517296553   11.53389405292703
C         9.13651369197380    1.01611264226181   13.57450308744260
C        10.06678017357343   -1.86922217125442   11.56755901156301
H        11.06789071976399   -1.48951231755873   11.73481681376285
C         8.21031481817907    0.28045921390758   14.30595144406772
H         7.61842730857992   -0.48234434990919   13.81960550066292
C         9.91282254336053    1.98566513569671   14.20369199241907
H        10.64144186781633    2.53804496475284   13.62272293447941
C         7.49676709844172   -2.79027432680450   11.10016956056256
H         6.49545694998454   -3.15227231784602   10.91582532717390
C        10.13550328952967    3.01925165339047    8.05471045735411
C        13.12580752567695    3.93545747580031    7.88026615742595
H        12.29107602308219    4.59994867187398    8.05611074445345
C         9.82305803716982    4.02182856228704    8.97083302989744
H        10.34208676128487    4.04929483355625    9.92136534827040
C        15.44108357377063    3.59506784787222    7.33200289312844
H        16.41017220266974    3.99832563765521    7.07896300128759
C         7.38210182861755    2.70377157970502   11.65728755818299
H         7.61795082293231    2.93925307160374   12.68578834106351
C        11.18083069599503    0.41418850024413    7.46613333988806
C         6.11840700429668    3.12732236935559    9.66034311289476
H         5.36270116973734    3.69232054496745    9.13524447111229
C         8.55887003503594   -3.67999662040023   11.13826080553672
H         8.38284704133829   -4.73414142807702   10.98111528180395
C        12.95324281027840    2.56010283874120    7.99640027812145
C        11.33644957927996   -0.69052362547523    5.34198764638558
H        11.62539790081122   -0.68069078289880    4.30083290516467
C        14.04068836102525    1.70686829365834    7.81112099951241
H        13.90884788136951    0.64055675591325    7.94643789726659
C        11.55513686448259    0.42771180289264    6.12541583905350
H        12.02394276560669    1.30737353405121    5.70489005350896
C        14.36834230462212    4.44600883873827    7.54688350377948
H        14.50173845688339    5.51478361851348    7.45892049161992
C        13.69154937429312    2.17315378982976   11.72819553380526
C        16.05421796443892    1.66118996486315   12.01445972796933
H        15.70192282736245    0.63088216140511   12.10297211636143
H        16.74743664529620    1.87880650847017   12.83293864864978
C         7.76370792612613    1.38612825390091    9.68009335392486
H         8.30631783387810    0.59797794644608    9.17307103502370
C         6.41883598941182    3.42810623171816   10.97802986174609
H         5.89954430769552    4.23105486138355   11.48082742735696
C        16.74623397844977    1.85261826398477   10.67199339177740
H        16.04034987122545    1.69000655161454    9.85615354107000
H        17.59528377266813    1.18066118450455   10.56666287827748
C        10.61003747731006   -0.73082278900802    8.01142635075692
H        10.35705549247716   -0.73946073707798    9.06575508685432
C         9.45302823847663    2.95179119982791    6.84669198612781
H         9.67179761294802    2.16325111967839    6.14091007362933
C         9.84486894523617   -3.21963913082618   11.37227933439644
H        10.67369992521272   -3.91159033708615   11.39592402084872
C         8.85809223667255    4.96312451129114    8.66996809565309
H         8.62236547792723    5.73984670819998    9.38228248610732
C        15.27473312193398    2.22470261243802    7.46535999296924
H        16.11330617295732    1.56156567719774    7.30578651916411
C        15.28415876870839    3.94458918373348   12.22674432590579
H        16.01666939519129    4.05527725088677   13.03227646373393
H        14.39027598402760    4.52422295575781   12.46889885335342
C         8.05726339943185    0.52853916802699   15.65770972259404
H         7.33897996104503   -0.04132015544485   16.22942830021181
C         8.48474193333508    3.89544715819559    6.55324657803030
H         7.95680705650287    3.84446875057745    5.61158439423553
C         8.82262876291460    1.50186426544907   16.28121758787640
H         8.69819354760833    1.68792169729331   17.33802723427636
C         9.75066200889400    2.23040576394721   15.55487780911021
H        10.35159669573791    2.98382071826473   16.04261324092933
C        15.87168523386528    4.43523513419013   10.91039116607790
H        16.13704230348712    5.48884003917606   10.96624512228405
H        15.16552030509924    4.27645627030325   10.09361199943499
C         6.79306418448022    2.10467024240528    9.01177753242209
H         6.56740587167669    1.87452365929482    7.98092923068227
C        10.75095620264102   -1.82347808355190    5.88659890454291
H        10.58472552096196   -2.69284255793755    5.26759843646540
C         8.18894391243375    4.90125558972629    7.45831206782349
H         7.43148731351051    5.63391892191717    7.22132624344160
C        10.39111292895132   -1.84614922936019    7.22406514760496
H         9.94752930668102   -2.73158518447207    7.65591120734018

