97
CSD_code = MISMEI | q = 0 | S = 0 | Stoichiometry = C47H43CuN2P2S2 | MND = 4
Cu        2.39145529201462    4.75179178390114  -10.16783672475607
P         3.95668744265549    3.99519593175130  -11.61896583944343
S         2.81531825473084    3.61209667855571   -8.22154460259687
P         1.31981471362391    6.62793008814238  -10.50634329630970
S         1.00992753985476    2.75080810190466  -10.36679248207163
N         1.99862554026987    1.12477729131683   -8.54783826016693
C         1.93700993206285    2.38349095083833   -9.00273025758785
N         0.83458983368066   -0.78265962090096   -6.83857168523369
C         3.48860785523691    4.36727430810162  -13.33430178922066
C         5.68635830878884    4.54821773460302  -11.49488683959082
C         4.16861103374936    2.19148131957361  -11.57230453488933
C         0.24668408381415   -1.69368831545727   -5.96683021888508
C         0.40517755952957    6.63921744911289  -12.07508172123588
C         2.66046079005344    0.75044608433124   -7.32247076044755
H         3.23468390980294    1.59813881493380   -6.94826484406472
H         3.33366475237024   -0.08695406650498   -7.53642382856590
C         0.16206313544741   -0.40642169461738   -8.06184546965210
H        -0.55657110709681    0.41410588439050   -7.90194650924150
H        -0.36469590920820   -1.27032155129581   -8.46822731575989
C         1.60781984865720    0.31824568285047   -6.30097225762603
H         2.09171158804552    0.02330939073233   -5.37187806989453
H         0.95318676181161    1.18103292906954   -6.09103321421141
C         6.71600098939633    3.94531658552610  -12.21192815972652
H         6.49616538085348    3.11639372320131  -12.87169267694140
C         0.08674314807831    7.25766216891900   -9.33042072818888
C         2.17263807924509    4.06432262078111  -13.68473647361436
H         1.53008624237633    3.58091098256056  -12.95937490255399
C         2.51366552493098    5.05316524439264  -15.83953487562849
H         2.13765226408810    5.31911265297398  -16.81647868178157
C         2.51594692277657    7.97605241507721  -10.68560509284505
C         4.90350802960562    0.32716533650597  -10.24281676014438
H         5.40177032950219   -0.05633660863391   -9.36378370164778
C        -0.56931317784165    5.65032806072625  -12.20046609323546
H        -0.72298098090169    4.95563110988581  -11.38431974203545
C         1.01927030014786   -2.27976295172057   -4.95818541987819
H         2.05763951910825   -2.00404913519356   -4.84967912473596
C         0.64527253998992    7.51261996660356  -13.12835506153844
H         1.40635216851844    8.27533535812103  -13.04106654215142
C         1.20925566926337    0.04590816117715   -9.08623295558293
H         1.88157258157557   -0.78885285352743   -9.31474020897617
H         0.72347501634727    0.38015510573126  -10.00379365057624
C        -1.08200760450087   -2.10542479242761   -6.09286496631337
H        -1.71997946730114   -1.66730543436756   -6.84470420722062
C        -0.09680265096512    7.40266629090812  -14.29115233847642
H         0.08985122407798    8.08265146038310  -15.10990969041717
C         3.61701320743216    1.31545443020710  -12.49883076833524
H         3.10892433024631    1.69807109444014  -13.37259331822870
C         8.01016565727822    4.40987088129601  -12.07242243912778
H         8.81128900654300    3.94554215608684  -12.62939664972779
C         0.48168271331170   -3.22585506811522   -4.11055980070652
H         1.10205030043263   -3.66267613612760   -3.34105647520667
C        -0.83758200231573   -3.62638577408581   -4.24674093694875
H        -1.25541699538799   -4.36885310625817   -3.58400761913339
C         4.30221628066363    5.04462389368712  -14.23577523508992
H         5.31361679525156    5.31029769352367  -13.96091707539289
C         5.96550184132416    5.59730428867357  -10.62672717253709
H         5.15628646329911    6.03697705092928  -10.05610205449991
C         3.81114256253230    5.38263511753405  -15.48446328058012
H         4.44589885215908    5.90822984349486  -16.18348079425084
C         7.26256773471064    6.05950149636756  -10.49255108873121
H         7.47666510580572    6.87661435384255   -9.81935674696186
C         3.71520202736216   -0.04919115667547  -12.29381298065186
H         3.28389159363856   -0.72962755257817  -13.01393033731073
C         8.28318469075007    5.46832590110759  -11.21849710434718
H         9.29704280572626    5.82644463675870  -11.11466822564967
C        -1.61013841640557   -3.06137806432538   -5.24498788573873
H        -2.64281895951595   -3.35785756286621   -5.36200758158420
C        -1.07560391113414    6.43019971368216  -14.40763941904920
H        -1.65246131815233    6.35324906891108  -15.31793707800833
C         4.80725659632335    1.69050803122617  -10.43812177028842
H         5.21360874795548    2.38095326245963   -9.70917243508286
C        -1.31121917348177    5.55213594664789  -13.36064035154386
H        -2.06766899665519    4.78664976328761  -13.45383231618195
C         1.69426601372905    4.39252905521744  -14.93782406194798
H         0.67829139284041    4.14531556842954  -15.20722493868677
C         4.35338339552826   -0.54509336880718  -11.16908145073964
H         4.41976826044941   -1.61228659311393  -11.01268354174982
C        -0.82141881846571    7.12941656589795   -7.11110738574073
H        -0.82041658739804    6.69682117405550   -6.12141242967553
C        -1.73985612057790    8.11343232972309   -7.43897162222622
H        -2.45530408283160    8.44980457654771   -6.70274991850205
C        -1.75031100276178    8.66570223312707   -8.71127228927958
H        -2.47257190159397    9.42933431663699   -8.96182791867193
C         0.09109966280383    6.69777793936116   -8.05675514292009
H         0.81254500365859    5.92212703252693   -7.82698795197187
C        -0.84101217428957    8.24054573965420   -9.66169525898749
H        -0.84490907661497    8.66230848437088  -10.65786606903457
C         3.54914690286612    7.75792997768863  -11.59655812266296
H         3.54735419904400    6.84341144698552  -12.18039031290756
C         4.55641061901984    8.68961882713652  -11.74566406844652
H         5.35301631459925    8.51461586203937  -12.45413549114902
C         2.51954680871052    9.12459048392693   -9.90331437824880
H         1.73309209089893    9.28783136262180   -9.17995564688406
C         3.53436966987193   10.05412862483968  -10.05417021041078
H         3.53508063718112   10.94801398522999   -9.44744665705142
C         4.54843268556719    9.84181896212318  -10.97326821495197
H         5.33822536044308   10.57016056729385  -11.08337539970425

