52
CSD_code = MISQEM | q = 0 | S = 0 | Stoichiometry = C17H28FeO2S2Si2 | MND = 6
Fe        0.00431908393406    9.38650114007389    2.01737290862719
S         1.55532343769132   10.78321921798842    2.98142033520096
S        -1.88086769338719   10.63052507651897    2.44429442114455
Si        1.73681450679206    8.03858947288620    1.44104249216062
Si       -1.35154989191949    7.90306026126565    0.96619282011048
O        -0.25789849436181    7.54710826613421    4.25036000218814
O         0.36707658643014   10.51800741121395   -0.63671317488122
C        -0.15679211649314    8.29184786213002    3.37332062790579
C         0.22355768077082   10.07251450972705    0.41555451637189
C         1.06388110117151    6.50673536031431    0.54291914480468
C         1.86999092213843    5.47864284901998    0.07969619983454
C         1.32428741904467    4.39409507076816   -0.58469472788330
C        -0.04367130882351    4.33358866785788   -0.79319368871979
C        -0.85320721521282    5.35846790639262   -0.33544327277420
C        -0.31250766762121    6.44581936187480    0.33292428675710
C         2.83834290658138    7.40637373352225    2.89718288176145
C         3.03224613879775    8.85705546091219    0.27169901825730
C        -2.78376005258097    7.16392359328616    2.03197828436620
C        -2.29643105783446    8.62272560439447   -0.55204139916950
C         1.64167164162716   10.52553229598268    4.78066809593098
C         1.01488597377546   12.53567295185874    2.95223521981042
C        -0.37898424786618   12.83154681503295    3.48762739476127
C        -1.51018226867374   12.42322734895869    2.55458005957183
C        -2.48948909024144   10.34473357501663    4.13515268314048
H         2.93812613250402    5.52683870560967    0.23802862792640
H         1.96185577892244    3.59677499293361   -0.94177803139238
H        -0.47521810676227    3.48917370217956   -1.31327172074354
H        -1.92013654326110    5.31328813328578   -0.50255758285846
H         3.40245829933995    8.21922985134091    3.34435055884084
H         3.55211637734154    6.67269608475007    2.53832358412400
H         2.25010769490417    6.93184922841102    3.67386616417585
H         3.34665244532268    9.82383048685533    0.65229123122580
H         2.62200991139150    9.00681727190458   -0.71994612008531
H         3.91547177875971    8.23505117867679    0.17234717243300
H        -3.29046080536041    6.37439536557680    1.48769251221056
H        -3.52375614554961    7.92076378250036    2.27364366068385
H        -2.41932577163095    6.73533949162248    2.95820435371841
H        -2.78058331481831    9.56157309270556   -0.30272280136241
H        -3.06088743320962    7.93509333073050   -0.89747454628167
H        -1.62031452708344    8.80567380412685   -1.37864650679073
H         2.05088439785898    9.53055735616187    4.91881690857590
H         0.65932240946299   10.57398778512800    5.23931482507030
H         2.30588142989936   11.26734122368356    5.21579131507469
H         1.76238613230037   13.08798554770526    3.52322238165724
H         1.09189145234973   12.82128953717462    1.90307466099198
H        -0.45069097083091   13.91354267628295    3.63791573928516
H        -0.51268627824414   12.36729821706568    4.46677001758896
H        -1.28542123306567   12.71332340238727    1.52813829914697
H        -2.44153991791944   12.90202288972433    2.85982032280686
H        -2.83906136731290    9.31813251407947    4.15535818173986
H        -3.31264348876847   11.02472250447560    4.33716826709974
H        -1.70079463119691   10.46739403120669    4.87042339606653

