61
CSD_code = MISQAI | q = 0 | S = 0 | Stoichiometry = C22H32FeO2Si4 | MND = 6
Fe       13.11291839649448   15.95022816343137    3.38557849786932
Si       13.82439402852936   14.25135938858742    4.74056487834427
Si       15.37436286011436   16.15912945267780    3.21112163108121
Si       11.00931467024033   15.88953284279580    2.58578499585018
Si       12.57708149827704   17.82735111203832    4.51862069897893
O        11.26778789793781   15.51704932202170    5.63047907459051
O        13.47837001949536   13.81498113155922    1.45595269044803
C        11.99359764131677   15.80824256761309    4.75494669280263
C        13.34572583539984   14.69648127894759    2.18569351345016
C        15.47492846124427   13.56629040253405    4.10785342768715
C        15.96618720491244   12.29240139254228    4.33354742997007
C        17.21228287950962   11.92701314011953    3.85071352749314
C        17.97942261201702   12.84444756519768    3.15278162426880
C        17.49533406474852   14.12372858596108    2.93460795145714
C        16.24301214124918   14.48738672902267    3.40049543237881
C        14.20487726529793   14.75631426180433    6.55537628684123
C        12.58950351389309   12.78198354429005    4.74313127281269
C        16.37366846787682   17.36120713492875    4.33801640569452
C        15.69267617344827   16.74135957748003    1.39731996608506
C        10.05014177970417   17.34666951471491    3.37553517055012
C         8.70167436150975   17.56050277436850    3.13034042613121
C         8.00887045389225   18.57522555430161    3.76922585226777
C         8.66526711706627   19.39255081344517    4.67262617671589
C        10.01274775511599   19.19510713497521    4.92340191599594
C        10.71589075000948   18.18293802931110    4.28330379353859
C         9.92875624787302   14.32033353318991    2.69670335496852
C        11.18286819096535   16.32341895564177    0.72097476157980
C        13.28925345057065   18.60682435338595    6.10095368041925
C        13.25977355716558   18.51559376694828    2.85874573133445
H        15.37358119719574   11.57572058386075    4.88337176302938
H        17.58727772021188   10.92696912778119    4.01861780726225
H        18.95287470598367   12.56023205464835    2.77775186474661
H        18.09816661874503   14.83983598933308    2.39326447093312
H        14.90889479422035   15.57930463934752    6.59768979963980
H        14.64128909716000   13.92415443483368    7.09728346209257
H        13.30506583774616   15.05619938969470    7.07753171671586
H        12.93949606204067   11.97303974044476    5.37563335884453
H        12.45506552678456   12.38391052758145    3.74341522197218
H        11.62035140467995   13.08995706757568    5.11418921805350
H        16.38031507609818   17.01507303465470    5.36485749186740
H        15.98704545046338   18.37348654791308    4.32512341000250
H        17.40482872179209   17.39787268983374    4.00316709800077
H        14.91257514040820   16.38585858466105    0.73072595044980
H        16.63389762400750   16.35028846656401    1.02714526678115
H        15.73537388592238   17.82146213913860    1.31622387322489
H         8.18346067266880   16.91847216278746    2.43253543220630
H         6.95750723749951   18.72425021245980    3.56815564706703
H         8.12902457746098   20.18084683173938    5.18136501396990
H        10.52455045216568   19.83325582667778    5.63000472460560
H        10.46300705981738   13.46400995532304    2.30077897724416
H         9.01471564493292   14.43092823707430    2.12331233164494
H         9.65512988201490   14.09928868960852    3.72189616776657
H        11.80652296814893   17.19095556105130    0.53591109041112
H        10.20520738834316   16.52728485652444    0.29906293632779
H        11.60648306648595   15.48706833132275    0.17865980764269
H        13.24035796551085   19.68818806491628    6.05189746778618
H        14.32340282412181   18.32414102664623    6.25064724173354
H        12.72351887347098   18.28074331192288    6.96553563415930
H        13.34769153562752   17.69052175092056    2.13864962138354
H        14.22930293111869   18.98281044470387    2.95495575222911
H        12.57162876143830   19.23641769468005    2.43224351894149

