63
CSD_code = MISRAI | q = 0 | S = 0 | Stoichiometry = C28H30Cl2P2Pd | MND = 4
Pd       -2.91325848680623    3.57027977642764    7.05396346304946
Cl       -3.55536246994559    3.59475278503434    9.20079146527969
Cl       -4.98948362009199    3.05037916104043    6.36764646367768
P        -2.19839211931960    3.43041001406256    4.90782625539363
P        -0.64690793863309    3.87436086539733    7.31454249145044
C        -1.31615537348112    1.80083097984410    4.76070019146683
H        -2.07711731877145    1.11817804862687    4.35504560617845
C         0.02830177061137    2.18144375929358    6.93483604825999
H         0.98582750322951    2.28505362592012    6.41645464098612
H         0.21758146842489    1.72908034686246    7.91517648799915
C        -0.94959595488211    1.29516282937299    6.16322980961243
H        -1.88220248251603    1.20869601912478    6.75609907434299
H        -0.51734314019536    0.29356687767006    6.07366430807003
C        -0.13856234010764    1.87686765583529    3.79526429529990
H         0.62513202258673    2.56024044149425    4.15976665351132
H        -0.47412869640697    2.23821843854733    2.82457174017993
H         0.30801070038539    0.89240404256034    3.66389035776144
C        -0.97809125404913    4.75656963040188    4.74768421614639
C        -1.32723618909716    5.55433660260441    3.69323747271158
C        -2.39761249627457    5.00025906810427    2.87537795729861
C        -2.92713784484234    3.82812485247634    3.32026849061884
C        -0.10461070882168    4.85778718861544    5.87978395739329
C         1.05674688949310    5.51082812612244    6.17007958330081
C         1.49961431968120    5.34109179332299    7.54462299961645
C         0.74095923944289    4.49834804602222    8.30153410882959
C        -0.79072315600047    6.91509211101088    3.39455211668832
H        -1.59957517974820    7.56988434088720    3.07676073213810
H        -0.05639078125371    6.88258760821012    2.58849617282099
H        -0.32896594791483    7.34218784140546    4.27840756220388
C        -2.85872288781804    5.68529684408328    1.63188050812057
H        -3.39703530052839    6.59976140935086    1.88149142094218
H        -3.52943886368559    5.03793068502994    1.07241825215589
H        -2.01174997040012    5.95420695747001    1.00268065353575
C        -4.05687529430750    3.07913637111556    2.75708615115668
C        -3.86142605121686    1.85525284544249    2.12619149812988
H        -2.85887889616562    1.46640501987053    2.01170578747071
C        -4.94024693088960    1.14640847933229    1.62915060967998
H        -4.77825187045379    0.19731766782906    1.13893465341210
C        -6.22331782844758    1.64759276283650    1.76558799629389
H        -7.06513056801915    1.08838812342265    1.38511371960915
C        -6.42485992912425    2.86407786255430    2.39602480806099
H        -7.42467004898988    3.25480415979894    2.51137207173197
C        -5.34920454462246    3.57936908156338    2.88717524980044
H        -5.50225342073572    4.51902255093371    3.39596179476354
C         1.91022869554427    6.26060993560132    5.19837199604399
H         1.62169767289759    6.02500700905957    4.17899789082343
H         2.95421788431119    5.98242622139037    5.33675016748433
H         1.83463430219312    7.33777969545387    5.34795879063360
C         2.67729339369066    6.11089901060514    8.04918194893514
H         2.64626898462840    6.18563452428050    9.13282931965199
H         2.67613034618841    7.11531063218408    7.63031500127709
H         3.61257353523443    5.62959737340207    7.76031680497455
C         0.91973192055056    4.03333447091071    9.66401722767686
C        -0.21644821328673    3.70891403839144   10.41030805792392
H        -1.19973279497020    3.83929092523648    9.97116599469331
C        -0.09927553470944    3.24628001634125   11.70565640208461
H        -0.98979224523030    3.01049629589807   12.26785087605508
C         1.15343935724396    3.08087588639073   12.27562948980895
H         1.24710681624660    2.71918985251664   13.28881973541734
C         2.28798077069122    3.36543851086357   11.53301690314958
H         3.26736301691363    3.21511867349273   11.96422357198922
C         2.17810633494309    3.83352687954036   10.23717983467200
H         3.07091774762313    4.00887635150394    9.65756008956138

