38
CSD_code = MISVIW | q = -1 | S = 0 | Stoichiometry = C18H14Cl2NO2Zn(1-) | MND = 4
Zn       17.38286248618731   12.08339222350261   14.46321236704032
Cl       19.14391759125052   13.10440278195630   13.51863951550671
O        15.70690013438985   11.85992801618702   13.43783008559388
N        17.49303663381289    9.99882455895479   14.28464122488825
C        16.32953602191588    9.59304246502514   13.77087046372861
Cl       17.01947263169924   12.49293859072953   16.63213358372871
O        25.47351528783590   11.28871123326045   17.59914532889955
C        15.41164673307549   10.62127697456536   13.33337621825448
C        14.19866281646957   10.17892357043842   12.78418834322328
H        13.49517506263323   10.92633342412539   12.44883622601113
C        13.89525125413555    8.83175318348355   12.67300712965181
H        12.94290289788574    8.54580600256316   12.24421647718312
C        14.76774481054602    7.84895804377907   13.09158372964483
H        14.51617724840343    6.80182441253295   12.99828426468524
C        15.99823197528035    8.21548785359922   13.64588816439209
C        16.96928497999057    7.29654461520865   14.10514669623073
H        16.75956278733596    6.23651102935038   14.03666936037529
C        18.14950172194286    7.74251276836810   14.62112074090039
H        18.89587238137467    7.04423998178069   14.96698463352921
C        18.40603281720407    9.13397587787383   14.70428462678466
C        19.63245099657013    9.70041837320348   15.20863746941351
H        19.66403050427656   10.77927250630523   15.14681156769062
C        20.67855867669887    9.03025649088370   15.71773379016616
H        20.63959463869251    7.95043262829474   15.80411311913356
C        21.90725847497600    9.62654326493932   16.19857004080349
C        22.85931800196739    8.81421232387735   16.81579022665843
H        22.66037214661475    7.75657207288628   16.92778724370141
C        24.05294279675481    9.32001167845433   17.29681924344008
H        24.75485736199472    8.64881035092889   17.76913739963826
C        24.32821233809519   10.67510107733739   17.16510105184336
C        23.38881106432792   11.50056702945575   16.54330612150578
H        23.61747402119668   12.54993739497761   16.44374917617180
C        22.20342043342699   10.99015488938680   16.06926745174570
H        21.50433076187544   11.65350470053400   15.58628147453832
C        26.44922395799733   10.50496380534221   18.23229578626179
H        27.25453171707902   11.18941186736826   18.49747604964211
H        26.84168430261123    9.72927460797181   17.56463288067634
H        26.06283953147425   10.03416733057175   19.14333072671667

