121
CSD_code = MISVOZ | q = 1 | S = 0 | Stoichiometry = C64H46CuN6O4(1+) | MND = 4
Cu        6.07714578277149   10.20739908152249   32.63657495600741
N         5.32423106946831    9.04962809066254   31.17649055909757
O         6.67374681319131    9.09558513579877   23.55324050006445
O         0.05725467790408    8.88771370544126   34.69065572777889
N         6.05374210808801    9.11910912009265   30.04801027945878
N         7.62464340379948   10.26864091155447   31.25489914771115
C         5.30120606696142    8.76049088720408   28.96387914073774
O         1.27487665013981   10.36020323457709   40.41774881462996
N         4.55776613956192   11.27694562558436   33.44915668443451
C         4.04665329331742    8.46007307783418   29.44809560852086
H         3.20612020155627    8.13041403349503   28.87354955455061
O         1.92536241881170   12.81042684811076   27.78133128239014
N         4.53031759697992   11.07533891015411   34.78264683020579
C         4.09906905763453    8.66775829731681   30.84208299150752
N         6.60074277998657   10.10506615401094   34.60943143512757
C         5.74292681435871    8.83957481664800   27.57780355128999
C         5.52188716805912    7.77511291716285   26.70480106256595
H         5.07802857562115    6.86483604763330   27.07847836392161
C         5.87879427751841    7.87395600383644   25.37816481790857
H         5.71397320530572    7.05601585906038   24.69507970725682
C         6.44108400322906    9.05357838021902   24.88383241812503
C         6.65210376153072   10.12543152357161   25.75100536231285
H         7.05386773684257   11.05360867103323   25.37435150230533
C         6.31245890521279   10.01153786937683   27.08210455480290
H         6.46675062391181   10.85369266553335   27.74162687739218
C         7.50030537219458   10.05546414692513   23.00281569823567
C         8.76017080664213   10.32994727645294   23.52037499992172
H         9.10131202460635    9.81461792281234   24.40696340956434
C         9.57417253606646   11.24783240490172   22.88133445915720
H        10.55454294518268   11.45790663730581   23.28172244032848
C         9.14205217593785   11.88627861563136   21.73119095796347
H         9.78268500404942   12.59985877737597   21.23686031393173
C         7.89101413822367   11.59887565509865   21.21147963271516
H         7.55339767864173   12.08724099293712   20.31038255512020
C         7.06707845539916   10.68583868954097   21.84355432228824
H         6.09321751211037   10.44463915499231   21.44709968348631
C         3.04350764022989    8.59365936829726   31.83472797585091
C         3.35636774816129    8.37348452226795   33.17567034705787
H         4.38083491491614    8.16523665145053   33.44953663353609
C         2.38162648405845    8.42228317383611   34.14870949588603
H         2.63895314288806    8.26797007982697   35.18500466034575
C         1.06147108983907    8.70294890489611   33.79929189930120
C         0.73915625117774    8.90032096806915   32.45509232023686
H        -0.28595216010505    9.11379486756564   32.19758865676310
C         1.71592673959679    8.84155682599168   31.48667245709079
H         1.45516595554094    9.02070721388048   30.45535282038465
C         0.11424285258408    8.39582347951804   35.97597155432341
C         0.62264320682606    7.14060066043194   36.28731977848042
H         1.02540917610989    6.51010930990610   35.50814598506120
C         0.58070071794424    6.69414992881688   37.59613739554442
H         0.97763482765173    5.71898240391842   37.83556925065750
C         0.01875269465085    7.47708360136685   38.58979145207847
H        -0.01226629680790    7.11698557139064   39.60676324553505
C        -0.51500224112559    8.71417610827183   38.26948976169541
H        -0.97337013224140    9.32336993902920   39.03303197827995
C        -0.46206299562152    9.17919039261677   36.96927824448891
H        -0.87261135145973   10.14028445271457   36.70299073293489
C         7.37383560478924    9.52692569292274   30.16789467394806
C         8.37104916669826    9.16377247691754   29.26581271051968
H         8.14055617550196    8.53728692003276   28.42053690544939
C         9.65635700339549    9.61657866102966   29.49640910219855
H        10.45220727458196    9.35484838791400   28.81701039256450
C         9.91203390214383   10.39924051451144   30.61726401336634
H        10.90251000509838   10.77060605818959   30.82118650843120
C         8.86618856612643   10.68933232433977   31.47180279182262
H         9.01081832185862   11.28850323490497   32.35947347345149
C         3.28332736254860   11.32706441157775   35.28695796452398
C         2.50970910642534   11.71556088509611   34.21588379515655
H         1.47250146993694   11.97268402997794   34.25503189677394
C         3.34186780703371   11.66298029839997   33.07643439896343
C         2.84671055678296   11.08036017126782   36.65203107641428
C         1.93925220392509   11.95323825941488   37.25434425583405
H         1.62920041338774   12.84196451829139   36.72667296666727
C         1.45903839354497   11.70381325298235   38.51919268458388
H         0.76425783088286   12.37827443981626   38.99326731976802
C         1.85255310250969   10.55657441703603   39.21225842159782
C         2.73851390937968    9.66642940116642   38.60641994256485
H         3.01778340934047    8.75387413444711   39.11025638287016
C         3.23191891040076    9.93404303635466   37.34746227530138
H         3.91256042497319    9.22914204365610   36.89131373427895
C         1.78411561385598    9.45322475664310   41.32414797372264
C         0.87188462460437    8.66228393071088   42.01186754948272
H        -0.17804174067065    8.75355686532273   41.78174304838272
C         1.31867428492068    7.78618340628514   42.98358244162610
H         0.60827074930125    7.17288986965148   43.51640636831333
C         2.67003830868443    7.69536139553953   43.27289686278932
H         3.01682103504462    7.00952430209213   44.03006749221441
C         3.57417141328264    8.49726136289197   42.59752650179980
H         4.62652586489923    8.44351776334732   42.83260857189111
C         3.13842172265374    9.38032679337466   41.62572392440678
H         3.83963061477308   10.02442796213833   41.11472224210684
C         2.99236531594070   11.95584503895584   31.70039553228110
C         3.95956796492230   11.92645797340182   30.69337619013668
H         4.98814025806690   11.73060658733268   30.96257942132426
C         3.62530293773049   12.16419764202603   29.37811878082993
H         4.37869116687879   12.13821154663506   28.60378658936103
C         2.30846596498723   12.47454079719797   29.03880773046586
C         1.33969730484870   12.53087762207094   30.04071978050364
H         0.32841430508097   12.78617835397033   29.76671542043539
C         1.67641321790289   12.26576229359985   31.34879124047190
H         0.90839750606673   12.29555276201696   32.10425031401176
C         2.54893086042116   12.24237636592091   26.69230362716111
C         2.80777098384898   10.87818477483002   26.63301420664851
H         2.58183019287846   10.25512230501317   27.48625861410964
C         3.32607344858797   10.33091068787527   25.47464565646843
H         3.49968262769283    9.26750753079357   25.42114239864680
C         3.61018526761260   11.13717746139319   24.38580114376614
H         4.01674925247067   10.70271682521104   23.48588619577517
C         3.35906912146187   12.49740966400811   24.45127910103136
H         3.57476267309209   13.12971316844882   23.60357372168079
C         2.82266469928915   13.05362649920855   25.59836876454340
H         2.60220486919182   14.10769562230776   25.65937335341133
C         5.72209098294326   10.73251346667552   35.40125794856943
C         6.01565693731643   11.06364859034618   36.72300601635813
H         5.30138677163482   11.60530943847903   37.32025133817097
C         7.24542652452212   10.69408987727321   37.23260858621224
H         7.50363317812559   10.93531643897354   38.25171441549612
C         8.14814668531414   10.02334280516167   36.41374257750725
H         9.11280727461795    9.71808613114744   36.78351788736362
C         7.78466891831463    9.76254912152707   35.10733118415272
H         8.45150933015276    9.25306006452155   34.42631475085218

