62
CSD_code = MISYUK | q = 0 | S = 0 | Stoichiometry = C23H32Br2N4Pd | MND = 4
N         2.99255709919919   15.29655848464829    7.64990637611680
Pd        1.02187541183033   15.13812192897609    7.83968303517268
N        -1.68973259640495   14.06280522700331    8.43064679144125
N        -1.69134474883120   16.04635101157617    7.55242837267854
Br        0.95115891596511   13.76283451241717    5.82510474638271
Br        1.07087850428745   16.65960029603308    9.75604525380847
C         5.19334962992460   14.43888706353481    7.64773283642756
H         5.88935908110831   13.63766554177262    7.85055108056262
C         4.85578068351762   16.53735820306958    6.89233305925863
H         5.27593247696325   17.44202418473127    6.47685471417776
C        -2.61128690151893   11.65510245129222   12.13571525240513
C        -2.51818191958782   11.85216287982354   10.75462504377738
C        -0.34344266144973   12.42155829161554   12.40781543032165
C        -0.24563757641719   12.63462448388379   11.02948955949456
C        -1.55304659294411   12.01506317389661   12.96994223883136
C        -1.34721882515834   12.38549368763626   10.20280792323134
C        -3.71065274275490   11.45610163013242    9.92400731160368
H        -3.84311558242321   10.37437590511109    9.96420562202472
H        -3.62317238902315   11.73149363746327    8.88103219262159
H        -4.61542742100897   11.91792718624352   10.31629016304123
C         1.08003536999440   13.11771226972156   10.50549373555190
H         1.02365940997369   13.51393359371764    9.47884609413257
H         1.80170496670266   12.29772278907653   10.51669856202277
H         1.45866369653690   13.91508124880859   11.14375714877059
C        -3.51175225022688   16.93028200222004    8.88504267708199
H        -2.94945431131580   16.78331417598273    9.80986916094039
H        -4.57633093885770   16.83927151144140    9.10570013626158
N         5.70249883983722   15.55177441018151    7.14422577322665
C        -3.19429381440009   18.31252512243426    8.31395671626316
H        -3.76896153800738   18.46852660357288    7.39691158961594
H        -3.48671105945704   19.08185616319378    9.02920749860313
C        -1.72000165512935   11.97842446316707   14.46498661392544
H        -2.74993548550551   12.18562681795244   14.74108719239289
H        -1.10012653668356   12.73493412124013   14.93708762725665
H        -1.44404638881916   11.00392825365603   14.87009811927713
C         0.86422317263145   12.63589251745151   13.27755000149854
H         0.99917332089893   13.69560906267507   13.49733436454146
H         1.76236175623191   12.27889600933238   12.78052888989767
H         0.77563307530698   12.09757865212371   14.21533020720481
C        -3.86036587792310   11.05361813927894   12.72024189371296
H        -4.26316197560194   10.28489466767582   12.06679801009285
H        -4.63047123128437   11.81418347759958   12.85786731672187
H        -3.65987279249762   10.59091470131494   13.68097188852988
C         3.49786948788943   16.42346572379378    7.14701423517255
H         2.80587326450415   17.24179459952624    6.95278982786818
C         3.83741965422554   14.29655782820997    7.89971653764390
H         3.41937094493496   13.37459395813159    8.29419964382682
C        -0.92923252905479   15.03992965408027    7.95153359830133
C        -3.10372497975789   14.42109464037819    8.41639348493960
H        -3.51648560054172   14.35923490789094    9.42721880760190
H        -3.65901374309924   13.74103668801873    7.76245546053299
C        -3.09748656388902   15.85801409864450    7.87648067220514
H        -3.69921548161750   15.96052450619748    6.96388574950993
C        -1.26976322417650   17.32677031658011    7.04800523355738
H        -0.17105293049683   17.31320128185384    6.91916326607171
H        -1.73402279008224   17.48235010430702    6.06522472547621
C        -1.70064276867926   18.43089830961398    8.01497426928846
H        -1.47575999733784   19.40409540688348    7.57814450831789
H        -1.13551666967617   18.33236059634974    8.94324842832017
C        -1.27064555970787   12.70281663909008    8.72242132618134
H        -0.25455502761802   12.57108019550118    8.33734458054387
H        -1.90061508363389   12.02356999012832    8.14217742391686

