77
CSD_code = MITCIB | q = 0 | S = 0 | Stoichiometry = C16H36LaN5O17P2 | MND = 10
La        8.86956859121258    8.38406062434862   13.16601266142250
P         7.84026012720676    6.55710902634991   10.37263618339419
N         6.28103983673662    9.75730617494091   10.05014276674694
O         8.68498694886069    6.55675097877181   11.58227132491961
O         6.47168625830666    9.00921616300018   12.16933293562870
O         7.48069880741345    5.06266040754941    9.91393950819753
O         8.44089114509596    7.20169938737712    9.05938232890513
C         6.18534141186870    7.35674121915470   10.49819877300309
H         5.66908140985016    7.23751285343195    9.55074503911626
H         5.66723987918586    6.80839614256553   11.28638143305176
C         6.33855210487383    8.77929977983721   10.95715518898572
C         6.19516347581531    9.51633756742864    8.62442056210961
H         6.96654578470856    8.81745009149632    8.30209515686346
H         6.34400265741603   10.46128716461817    8.10836116956059
H         5.21024631630532    9.12877047445114    8.35362606209566
C         6.54462973621579   11.12575323195149   10.45157146075976
H         5.67646586143522   11.75013107106488   10.23016073461934
H         7.41533758714321   11.51013666189395    9.91752735219405
H         6.74397388514081   11.15107682833930   11.52147862310704
C         7.66792807778616    3.97963207115174   10.82549853508525
H         7.66296060620570    3.08274039359911   10.20069420171227
H         8.64033612360622    4.08353416194882   11.31349716449572
C         6.57086776210126    3.93292890336620   11.87447512646139
H         6.63099267928486    4.82620843453337   12.49245057677242
H         6.70469407335674    3.05567471185573   12.50174292583366
H         5.59376547267197    3.88285052466642   11.39884637581637
C         9.86756966940134    7.24455025398423    8.86703391677971
H         9.99180389798384    7.77671924149936    7.92042227408997
H        10.31327584116468    7.82618556140467    9.67739027004687
C        10.48583006750112    5.86131756949770    8.81472700101966
H        10.45960882808126    5.40689134814228    9.80287725994681
H        11.52446178006428    5.94359950247460    8.50585806536673
H         9.94840269002183    5.23047261081449    8.10974040703715
P         6.66475061683601    9.63659703010573   15.38302076210367
N         6.92015691926285    6.01036165493557   15.81422717919861
O         7.69341730438448   10.05873505688267   14.40409644892238
O         7.02645246783933    6.73886221252292   13.68367754791637
O         6.94585406780475    9.63707128107214   16.93430907716501
O         5.43938823167945   10.69093774513956   15.34417987239361
C         5.73738683009411    8.05317395449382   15.15333350134186
H         5.10423446869677    7.93492571722274   16.02761206765016
H         5.12431270608260    8.23427898120363   14.26753127363048
C         6.62599330667125    6.88108975969075   14.84968888046786
C         6.58359235692841    6.24622294849728   17.20322429995970
H         6.97208706690004    7.21088605783284   17.53402418763983
H         7.03217005597382    5.45814786230704   17.80248337250625
H         5.50288483406711    6.21490820466896   17.35278467106128
C         7.93790683119562    5.00804309365337   15.56335928497059
H         7.53358611430453    4.01300859750677   15.75602523350506
H         8.79841702559357    5.19340243782393   16.20601943014468
H         8.26950161232030    5.08874522378277   14.52946146481462
C         7.24408793550267   10.87129751710443   17.61413636263061
H         6.32087926335695   11.45577352188939   17.66934507000455
H         7.99467989826334   11.42588867465044   17.04775010096373
C         7.77180766045913   10.52519535188183   18.99228893869451
H         7.04613804362554    9.92444606001837   19.53440824670151
H         7.96795676486619   11.43839600589494   19.54647897178348
H         8.69538281329091    9.96640875399243   18.88079442933528
C         5.11300853453085   11.38087154676493   14.13956973624539
H         5.26689813092656   10.71527854437694   13.28733534930297
H         4.04912256083432   11.62407420317385   14.22772289401729
C         5.94660854261943   12.64279248681379   13.98310119601216
H         5.82646218211831   13.27939497803544   14.85630908650686
H         5.62979860486239   13.18955225955150   13.09851574699445
H         6.99526219055003   12.37462667902486   13.88686912920853
N         9.51858345227776    8.95277745534972   15.64548272629923
O         8.67370782132398    8.04524708470679   15.56482581034398
O        10.27760565624445    9.13322828258124   14.70915659828690
O         9.61414471390769    9.59179444555888   16.65154629980285
N        10.82032199341989    6.78674268106836   12.67948482318972
O        10.15306413217266    6.58754880868398   13.69888484933596
O        10.86706856920464    7.93235032035621   12.22288577122450
O        11.42249148416422    5.89152554047894   12.15872443074006
N         9.43435697008156   10.22993460780492   11.26843431523941
O         8.87086522002181    9.15269082419451   10.98472878814973
O         9.56429663918832   10.51785992260990   12.45194011976047
O         9.77689801159561   10.97270448667923   10.38822828871778

