97
CSD_code = MITGAZ | q = -1 | S = 0 | Stoichiometry = C48H38BN2O5P2W(1-) | MND = 6
W         2.11845337065538   11.01258492559328    5.93390160740579
P         1.63367540313425    8.59363506178289    5.87673729809705
P         2.01336663544814   10.78904175115407    3.46470268556960
O         5.06901647311862   10.18365491836166    6.57660465351234
O         2.07856602208928   11.23534447160946    9.05333700492419
O         2.97756029686477   14.01157438778291    5.96202526734674
O        -4.50806970686208   12.40193892391000    4.08539078652536
O        -2.73955112089153   11.30377482533295    4.65289418710846
N        -0.64308498988516   12.51239997032691    5.46933454442405
N        -3.33937178747201   12.35327645243438    4.46191082167532
C         3.99909718432277   10.43931273908711    6.23242859063915
C         2.06168467307723   11.12421200935623    7.90480769388814
C         2.67430983592454   12.89603806109829    5.91263859532379
C         0.28881229977435   11.81263825715407    5.69724093787880
C        -1.34237793494254   13.61110932961479    5.17818359324942
C        -0.73144912068445   14.86639712208173    5.35946603065864
H         0.28285550092039   14.88387843113863    5.72873097794810
C        -1.39996326094817   16.02349733481687    5.05407121658174
H        -0.90905491281823   16.97605003303852    5.18731207237176
C        -2.71008077329619   15.98019026228738    4.56779574855989
H        -3.22899962138892   16.89605123856893    4.32962776141791
C        -3.33001967367077   14.76912242444692    4.39074843614466
H        -4.33943233610608   14.70152001757323    4.01332147079850
C        -2.66565934858141   13.57506732982782    4.68586412950925
C        -0.01227293638149    7.81217605622137    5.91244399032086
C        -1.15641641823556    8.58202742138485    5.76337804885913
H        -1.07742856661141    9.65683104374267    5.65649357528601
C        -2.40216661814409    7.97972117419356    5.74184212027026
H        -3.28286057731298    8.59006978298247    5.60786987816479
C        -2.50921968685168    6.60726566107455    5.87899045242928
H        -3.48101288234337    6.13353187720045    5.85639682343391
C        -1.36940793388412    5.83539565603684    6.04380571289800
H        -1.45325931279328    4.76260582032480    6.14864911644690
C        -0.12544491517427    6.43342437121949    6.06026659048699
H         0.76557632116554    5.83298222503314    6.18372393211381
C         2.33464667085748    7.85084820079499    7.39142205292493
C         3.61381294005051    7.31097187195566    7.44278037161706
H         4.20957246613653    7.24857214583448    6.54286927959449
C         4.13409915926369    6.85779060405944    8.64260436353741
H         5.13171360521246    6.44098393701565    8.67321637323855
C         3.38437341865908    6.94127492431281    9.80275917991139
H         3.79384089580730    6.58907550047800   10.73949731393800
C         2.10930109233026    7.48442943735794    9.76201860831963
H         1.52420608299257    7.55756381380875   10.66832999314131
C         1.59103256568036    7.93992295376837    8.56641240542469
H         0.60009912354924    8.37561548990675    8.52813601007342
C         2.47826494991303    7.76552771069827    4.49974180009985
H         3.45778140528598    8.26150426356495    4.46129026873225
H         2.63599866036080    6.71651633851355    4.77431679814114
C         0.60123806620455    6.71543623865942    2.91629266718872
C        -0.76244899467081    6.92107232435653    2.72180383707902
H        -1.14978793333533    7.92635542912262    2.63501776637309
C        -1.66273703045471    5.87280151891392    2.64263038061888
H        -2.71681140144085    6.07756778234016    2.50088178360392
C        -1.22327557112884    4.56624540636315    2.74698795212131
H        -1.92479873356956    3.74313570037943    2.69023498815068
C         0.12963065302744    4.32643337487543    2.91669507519721
H         0.49213988172450    3.30733180234133    2.98672396938264
C         1.01497947469477    5.38430153799215    2.99389828561667
H         2.07059841417631    5.17236159812254    3.11064177337675
C         2.74890996561766    7.68337091557486    1.78886999848928
C         4.12394305447414    7.49355940562707    1.90011939331968
H         4.58700316586254    7.46531346453685    2.87729290855809
C         4.94148153887652    7.33938569744448    0.79379705542472
H         6.00831725768909    7.20215026231371    0.92543617592103
C         4.40318518046767    7.36088161260566   -0.47913091143121
H         5.03947531183183    7.24411019348028   -1.34757298203246
C         3.03622493033799    7.52566800215439   -0.62465973378758
H         2.59682419443765    7.53188930026208   -1.61528462237292
C         2.23521477773148    7.67919005389857    0.49016330713681
H         1.16720801713993    7.79132108709271    0.35363117292166
C         1.01965723013945    9.39071695958882    2.88739176211032
H         0.12209262298426    9.43769851980484    3.51742869344350
H         0.72566225109147    9.59075511681450    1.85083253091504
C         1.17602904895744   12.26691054329207    2.78434780505141
C        -0.16733361997074   12.27307939807073    2.42815517268043
H        -0.74612653761564   11.36281487889988    2.48961097654426
C        -0.77485204267292   13.44597573530134    2.01285591377229
H        -1.81966514425317   13.44145843009491    1.73269134256463
C        -0.05352493577214   14.62569416368219    1.96162085914013
H        -0.53434292341770   15.54131018002783    1.64680583725786
C         1.28517316369704   14.62941901461165    2.32227325150887
H         1.85082543556793   15.55017110879939    2.28819233108886
C         1.89432096446736   13.45896735629263    2.72984168420721
H         2.93880330449881   13.45557579300811    3.01681753181100
C         3.46933942920284   10.77296926991614    2.36232778896951
C         4.74876015171103   10.70091627008560    2.89190128476114
H         4.87323432085223   10.69004200051667    3.96730303459712
C         5.85096760450028   10.64762968799848    2.05720186493611
H         6.84527840828811   10.58551869028488    2.47769790713235
C         5.67835444316108   10.66971666232070    0.68473583632401
H         6.53698134329407   10.62001762024159    0.02978285608297
C         4.40328959616732   10.75566682355291    0.14884160338674
H         4.26898916935032   10.77297842427272   -0.92343687155119
C         3.30388256837787   10.80967467150776    0.98187831738360
H         2.30907635458488   10.87773690056841    0.56454388739200
B         1.71760095565624    7.89126451219327    3.02845538670188

