97
CSD_code = MITGED | q = -1 | S = 0 | Stoichiometry = C48H40BMoN2O3P2(1-) | MND = 6
Mo        1.89629564998134    6.94046923553902   12.49113805044926
C         2.74775465640729    6.20873189727470   14.07894176694718
O         3.37100398649022    5.75628256344029   14.93473217588283
C         3.03287767893049    8.49499890025151   12.60920304968239
O         3.72967919294437    9.41642775090710   12.67132088720249
C         3.28672216201462    5.98589397659097   11.53858367068244
O         4.14712506975324    5.42763058253802   11.01386505475451
C         1.14953449231697    7.75444837729479   10.83824011482261
N         0.76139040621160    8.34580814215554    9.89280340381794
C         0.46093157202764    9.31200162410873    8.99090593674021
C         1.16890438339042   10.53426410065761    9.02981545864472
C         0.80127836890999   11.52731949086759    8.12557773243819
H         1.32744344645277   12.47157419773877    8.15161637588266
C        -0.21557132464163   11.32230887382077    7.21115061442944
H        -0.48036766575956   12.11283068089299    6.52331654030777
C        -0.89539969668500   10.11569045803813    7.17537295739605
H        -1.68966815149064    9.95784831848218    6.46088109688124
C        -0.55726556814571    9.11398873796395    8.06618757545700
H        -1.08320129430426    8.17038133911690    8.06468858162878
N         2.22758054180747   10.70026064336807    9.88398111820256
H         2.30088740682847   10.05243952310463   10.65484238691688
H         2.49217622800955   11.64547789573273   10.10500272096473
P        -0.00068378877015    8.04785517366243   13.51513219026835
C        -0.17222349678903    9.72375239738913   12.80626526934046
C         0.68330515190107   10.72159932119370   13.26878719352422
H         1.36567433707009   10.49344181766290   14.07887863755619
C         0.66623101700360   11.98165030190176   12.70351977957771
H         1.33377800281152   12.74858977908526   13.07290667848072
C        -0.20252857034157   12.26275826155557   11.65925069802314
H        -0.21408703880031   13.24682498425956   11.21080023715745
C        -1.05252167710768   11.27747025457420   11.18869055754098
H        -1.72360910655323   11.48984615412678   10.36759655552740
C        -1.03810109581912   10.01599401094620   11.75886668425330
H        -1.70209078028153    9.25195328568259   11.37918042629698
C        -0.13563603563256    8.51931904951817   15.27337701540141
C         0.80943913802876    8.09195434613394   16.19321580086546
H         1.64790085691761    7.49936972199966   15.85127493376682
C         0.68656304755985    8.42368841813151   17.53120095033264
H         1.42602913379341    8.08190260926495   18.24259629408065
C        -0.38349419942036    9.18966339902836   17.95725376228332
H        -0.48601819228992    9.44438289123580   19.00309571729029
C        -1.32503570232582    9.63193017932735   17.04153033491548
H        -2.16125445612238   10.23095503029191   17.37416715464693
C        -1.20161562514234    9.30167007793821   15.70720381297675
H        -1.93502676487095    9.64968094858558   14.99298009940838
C        -1.60004737632090    7.26423148892904   13.18828022912227
H        -2.38703965369845    8.01540379213796   13.32507816629180
H        -1.54372479371333    7.00801359460137   12.12068000425756
B        -1.91628028618571    5.89006639697932   14.06452801595285
C        -2.45661844344940    6.31670673590790   15.53757853855089
C        -1.84078609869380    6.00211144384858   16.74632539632198
H        -0.92685052463623    5.42362663956996   16.75043436875817
C        -2.35426016007276    6.40846966959719   17.96575784378436
H        -1.83772369661413    6.14971931415690   18.88258959431584
C        -3.52304011876991    7.14455394624853   18.01958987586099
H        -3.92640083877318    7.46782850789355   18.97128708459169
C        -4.17338367178490    7.45469373947336   16.83739183125657
H        -5.09773590260253    8.02019328007213   16.86327351617076
C        -3.64609545391992    7.04258210159039   15.62893194554770
H        -4.17925909280899    7.28407225390339   14.71793297268455
C        -3.09843398620065    5.01164355476319   13.37529323508542
C        -3.78371132096634    5.35792158677751   12.21323051552853
H        -3.53835983982023    6.27648670044200   11.69731488916858
C        -4.77992039766427    4.56071783074338   11.67687384946103
H        -5.28158011075567    4.86294451592574   10.76497559457097
C        -5.13743759898917    3.37894465380892   12.29861937780767
H        -5.91347942702815    2.74977995142476   11.88038479165050
C        -4.49375389187018    3.01777051688045   13.47001766521152
H        -4.77256752646240    2.10153960124489   13.97755801948498
C        -3.50095854045702    3.82480451229503   13.99102955894225
H        -3.02216378323935    3.53037922821056   14.91649120876732
C        -0.53648398393606    4.97079021574381   14.14986926652053
H        -0.76118595703977    3.92959852903853   14.41003608207215
H         0.13517214693291    5.38111335812126   14.91721230113767
C        -0.65222279363108    4.32150413662038   11.38568263349108
C        -0.90673239937381    5.03460318960703   10.22367961195073
H        -0.39560536740180    5.97548970362111   10.06140373749235
C        -1.79505247020430    4.54522822339057    9.28186052704390
H        -1.99284685889306    5.10800897478432    8.37899988760873
C        -2.43113450605503    3.33532548167938    9.49472749746288
H        -3.13059881404226    2.95442690135352    8.76326326059344
C        -2.16920174239080    2.60973554191121   10.64601716779544
H        -2.66513176128904    1.66367265880256   10.81181024774333
C        -1.28376320968760    3.09807550299246   11.58562299116227
H        -1.07787327970286    2.53108931526623   12.48273255706281
C         1.55907623731036    3.51734911038671   12.80253995748576
C         2.08897631415001    2.97163760941777   11.63534471714847
H         1.79164681996601    3.38651541453820   10.67926749739450
C         2.98433686790336    1.92259698137478   11.69353933260633
H         3.39042499219654    1.50656342102234   10.78162255519253
C         3.37041325407555    1.40824892857716   12.92177436658162
H         4.07606417971523    0.59005261755879   12.96923294565935
C         2.85597734705408    1.94971868676439   14.08683376909121
H         3.16144018972857    1.55490964406613   15.04656181616768
C         1.95536901418485    2.99899784033148   14.02927487571136
H         1.56464349763136    3.42097145441007   14.94515912709766
P         0.48549912206705    4.98254127782691   12.65324512792024

