44
CSD_code = MITHIH | q = 1 | S = 0 | Stoichiometry = C17H22Cl2IrN2(1+) | MND = 9
Ir       -4.23577437173655    6.15525451030868   -2.50383718176573
Cl       -0.72406765624044    3.30884612879860    1.06349953318810
N        -2.60830798402489    4.53865021726342   -0.44735438013833
C        -2.81666483250466    5.00956902513268   -1.69080187023238
Cl        0.80378088949155    3.75026457636005   -2.13011128266244
N        -1.67813807673741    4.79882526292248   -2.37897325771684
C        -1.33908306077462    4.00901284355849   -0.35905778337616
C        -0.74956641289487    4.17472791117305   -1.58522509304585
C        -3.57408551282445    4.61926806830108    0.62661325793176
H        -3.02520960502153    4.63814534655163    1.57406643518340
H        -4.19709036317490    3.71944464716736    0.62294010703907
C        -4.43117899972721    5.85268846330221    0.50720096753259
H        -5.46791745609682    5.71813285762982    0.77747656987790
C        -3.96867275083312    7.05680365011924    0.17992874816923
H        -2.91781721768419    7.24205168398404    0.03224568325806
H        -4.60808882611262    7.92132558074233    0.19362835846088
C        -1.55832979158186    5.31174193891791   -3.72290357268208
H        -1.76142880692156    4.51486410697264   -4.44474353243467
H        -0.53533067658694    5.66634907606306   -3.88443410208893
C        -2.55349798050663    6.44937578514655   -3.87704830446056
H        -2.87269969088859    6.61881223612921   -4.89832180438076
C        -2.59468225719617    7.49620299314352   -2.94723226070162
H        -1.83796346929237    7.53241314451639   -2.17195023212616
H        -2.92959128414282    8.47251452291469   -3.27153196329409
C        -5.58646753542783    7.26442642899038   -3.98258566066609
H        -4.95224809771462    7.95308023217497   -4.53048894993221
C        -5.91990896031270    7.58531274630846   -2.69272013519458
H        -5.54589631060504    8.52723892772731   -2.29416865221375
C        -7.10552996455006    7.03146374369124   -1.93991465164819
H        -8.01190080737784    7.51344042558041   -2.31922512375902
H        -7.01085119231170    7.31772170143271   -0.89126467255822
C        -7.25443458251251    5.50052868578712   -2.03275833391492
H        -7.88949247520723    5.22824593541987   -2.87555367820737
H        -7.75864657083478    5.15019262570320   -1.13150381322089
C        -5.92926672611732    4.77786620438402   -2.16493732076948
H        -5.70584499087682    4.10483277537175   -1.34300466154160
C        -5.34070553928321    4.46107094752858   -3.38296770791791
H        -4.68992008683433    3.59087498950259   -3.41085336166456
C        -5.85604536919613    4.85432874691103   -4.74190359407971
H        -5.05066886361819    4.70942411395828   -5.46388287426451
H        -6.65750091583105    4.16333910286833   -5.02022881362000
C        -6.36744484782069    6.30273042946492   -4.84240514622446
H        -7.41983291012428    6.35432092690190   -4.56548075722448
H        -6.29388705942961    6.62047573317202   -5.88292513091330

