51
CSD_code = MITMAD | q = 0 | S = 0 | Stoichiometry = C22H21NO6W | MND = 6
W         1.29464328438453    2.30190043360281    3.43460535835406
C         1.55431342303398    2.00740292667995    1.47833894731170
O         1.67742591609628    1.82277209400635    0.35545510687762
C        -0.49671560119865    1.42917450195737    3.33658906124094
O        -1.53249925276859    0.94937803314424    3.25490575552182
C         0.46669434865480    4.08920631420376    3.09972123576869
O        -0.00236854495129    5.11582606064306    2.91159307141766
C         0.96146348277481    2.60548600330943    5.38150105475649
O         0.68723863155481    2.84334087229297    6.46801065812330
C         3.07615832077730    3.20084692473944    3.49863064612350
O         4.06740120044749    3.77468083367856    3.49642244260317
C         4.23899502436988    0.03982941347112    6.65099037871905
H         3.38340499028227   -0.41525939880540    7.14331281850095
H         4.74005813419259    0.70102716796522    7.35179689683763
H         4.92476208616603   -0.74968611700232    6.35238048111230
C         3.77778435465183    0.83218650516520    5.43589480252387
H         3.06806539378371    1.61528641203641    5.73116309471398
H         4.63647460082698    1.30557851852852    4.94180446895739
O         3.16796357395985   -0.06275868775000    4.52513657261310
C         2.18682424619207    0.32097938264912    3.70882219246097
C         1.75861957179428   -0.74074968372686    2.87919781526289
H         0.86513161183505   -0.55497928731386    2.30195497043616
C         2.37234120015665   -1.97582729455548    2.73114245576599
N         1.84199215091969   -2.93988336473247    1.96601341520290
C         0.57751208688518   -2.80619066356939    1.26419228121505
H         0.63639745513545   -1.98688157493955    0.53768118288635
H        -0.23096907763365   -2.58813924438117    1.96626629513426
C         0.39333976132011   -4.14574621305949    0.55451040634278
H        -0.19216847368545   -4.04959772677729   -0.35654731931411
H        -0.10217669995416   -4.85875955106654    1.21419608952170
C         1.83180977773094   -4.58508357431499    0.29588634379587
H         1.92403559293943   -5.65190359952064    0.10685975858489
H         2.24450891391478   -4.04008878328031   -0.55360143919620
C         2.52944890266621   -4.16040042530750    1.58468663033185
H         2.39697166183738   -4.92831692628085    2.35577146685171
H         3.59891305073682   -3.98094501752760    1.45941714072249
C         3.65554419765279   -2.25170831951300    3.38288446728976
H         4.44453950061679   -1.55527090451978    3.13713226870305
C         3.85879456358700   -3.23538986349189    4.26302488382792
H         3.03292001440299   -3.88778434213027    4.51933119969936
C         5.09795383462021   -3.51182402892241    4.97001702523150
C         5.16092266524282   -4.62834536998443    5.80725986030844
H         4.29176637052562   -5.26351331963405    5.90701035903932
C         6.31362149312289   -4.93207123321360    6.50496120868592
H         6.34151038117535   -5.80148407276186    7.14536765084978
C         7.43100970142784   -4.12235138428304    6.38640699378975
H         8.33218766498943   -4.35548904952708    6.93334521329022
C         7.38419926641451   -3.00856894857456    5.56319200917134
H         8.25141228745995   -2.37112399805075    5.46995679944689
C         6.23358443568484   -2.70544981619450    4.86213209267425
H         6.21713852324631   -1.83093061331793    4.22987542986024

