60
CSD_code = MITMIN | q = 0 | S = 0 | Stoichiometry = C26H28Br2N2PdS | MND = 4
Pd        2.44325555675624    1.68669591176412    2.69105727099276
Br        1.93416545329674    0.04815995341154    1.01710390092892
Br        2.13098563078659    3.50811833502961    1.16093297727034
S         2.41631017527682    3.42336281946530    4.33177892653316
N         3.65453194958869   -0.76838546805419    4.04898677718124
N         1.87897816310273    0.00375039236626    5.04485122336313
C         2.72788469266309    0.20759737076644    4.01594653531851
C         3.40790578842227   -1.61304888835662    5.11380571463810
C         4.05198894548383   -2.74291346343808    5.60005054593366
H         4.93049374743321   -3.14126290967568    5.12098756423435
C         3.51938353708542   -3.34181335544211    6.72546559321513
H         3.99714433297734   -4.22269167787992    7.12529402391582
C         2.38353209817637   -2.84099479197115    7.35862184275255
H         2.00300239608141   -3.34311821891127    8.23454208698169
C         1.73675251194146   -1.71457889173166    6.88878092956420
H         0.85786815200257   -1.32740501673536    7.38017280575901
C         2.26371752459919   -1.10854291551430    5.75911678257181
C         4.75859023902028   -0.84768335487018    3.10462766126926
H         4.41833532935475   -0.30999282538124    2.20046868953508
C         5.01417664343079   -2.28832882759999    2.70633679104985
C         3.96795402928077   -3.01318289959059    2.14705681502777
H         3.01459001551944   -2.53510406678775    1.97910092085678
C         4.15358239837177   -4.33422840071733    1.78444333844022
H         3.33558767669977   -4.88741497493378    1.34914292922978
C         5.38459396814954   -4.94121775649923    1.97006393676981
H         5.52986402156495   -5.97269958614582    1.68575450033978
C         6.43215916779221   -4.21831548167409    2.51324620743274
H         7.39741282136588   -4.68246376448792    2.65314553173067
C         6.24983405240010   -2.89619618544300    2.88211662678238
H         7.07306873583399   -2.34086755724330    3.30817975687804
C         5.98840996265521   -0.13693547174439    3.62283711960113
C         6.85106251574103    0.45079255761991    2.70317243224693
H         6.62213702790109    0.38950596280711    1.64934627781796
C         7.99212933741954    1.10477015044235    3.12887363664705
H         8.65428199451936    1.55434189501369    2.40453429750481
C         8.28217970887211    1.18756265132012    4.48111474176212
H         9.17093790238617    1.70095217110202    4.81591895835103
C         7.42780972576469    0.60746510127923    5.40197513879705
H         7.64833892781947    0.66550244110320    6.45808491998175
C         6.28770779473124   -0.05501959950245    4.97673391173338
H         5.63695813861789   -0.50986574711672    5.71035720657389
C         0.81485789699722    0.91235846313774    5.38540172100952
H        -0.02250387929837    0.34814872395593    5.80262905224454
H         0.47190588834750    1.39967569220073    4.45486658475153
C         1.29030174511851    1.96877583234300    6.39554204534077
H         1.44379013360678    1.49622475999416    7.36980833556453
H         0.50438930877991    2.71843408252589    6.49961726644165
C         2.59431928374203    2.65430712122916    5.99213223216386
H         3.42660253257239    1.94876060712279    5.97145653371813
H         2.81514629489408    3.45354091599881    6.69861524886964
C         4.04522647267080    4.22510399293443    4.03201465669436
H         3.81589947796718    4.85584321993792    3.16690573066812
C         5.10119291321277    3.20209234160162    3.64933037282256
H         6.02220854544490    3.70838155579480    3.36614098495614
H         4.76374186693177    2.60747249891372    2.78089027354741
H         5.32637825644294    2.53323246938384    4.48044925886999
C         4.45984835590518    5.09591148955640    5.20379732824691
H         4.79443413529867    4.49319851232712    6.04647469642246
H         3.63830739365042    5.73407505562906    5.52252926053410
H         5.28635058683863    5.73455704936144    4.89937056962133

