70
CSD_code = MITMIL | q = 0 | S = 0 | Stoichiometry = C31H29NO8W | MND = 6
C         8.19935546244500    4.21663939567790   -1.18719805877585
H         8.05165871050608    3.15994285480773   -1.41901858464530
H         7.94044785870945    4.37553150267844   -0.13697352918558
W        12.48720084658657    7.30265344335373    0.28802834389945
C         9.81897449502989    6.12018272202960   -1.08254568766153
H         9.52320208992076    6.28901432530444   -0.04176906663530
C        11.26888698078240    6.53876721390977   -1.27276486711320
O        11.56906571629240    6.31289810217424   -2.52119126382652
C        12.85129674720293    6.59724149081802   -3.05722006369519
H        13.06316715641194    7.66698545200376   -2.93985343779762
H        13.61146645366387    6.03088560856885   -2.50456790641514
C        12.84323908356252    6.20790636395402   -4.52762268088931
H        12.65152455120625    5.14363016009349   -4.63820084934156
H        13.80548017804362    6.43898640798635   -4.97432122299748
H        12.06773482889139    6.75487249885220   -5.05781918895746
C         8.92536393591436    6.94864757381391   -2.02602613834395
H         9.24222437970390    6.75032528300422   -3.05538585558154
C         9.12133252614033    8.42488588691235   -1.76615065234209
C         8.47660877498947    9.09270665272599   -0.73367265674245
H         7.80112665786237    8.56566419678958   -0.07433135310619
C         8.69212444700990   10.44312701575445   -0.51900217540005
H         8.17548020046085   10.94567934610467    0.28546253512645
C         9.57388919680250   11.14439200968548   -1.32097169392947
H         9.74696214032119   12.19600338384467   -1.14793153193985
C        10.22836428579351   10.48892751688502   -2.34952878835972
H        10.91419138956392   11.02927141095205   -2.98542688884587
C         9.99612829046276    9.14449622523456   -2.57296816088883
H        10.48265989953699    8.64976028436830   -3.40062475768910
C         7.23482204898606    5.03830106331765   -2.00878954214026
O         6.32314793895129    4.54071233531392   -2.62021577030160
C         7.44813835823420    6.54244969724214   -1.93698273047839
H         7.02422200318902    6.86145758088839   -0.98042110755904
C         6.70017226941813    7.23063767040532   -3.09038180050125
O         7.27330729819477    7.55489117637086   -4.11406623171100
N         5.39314979562213    7.45568941610279   -2.90401253079826
C         4.57749139655525    7.10889640583432   -1.75658785246755
H         4.71675943336559    6.06357121881579   -1.47439411961902
H         4.83277810993614    7.75094210926470   -0.90256175278012
C         3.14735118686385    7.38289102655810   -2.22315772486974
H         2.48984961143135    7.64905649134641   -1.39812166324204
H         2.74677464812554    6.49999300963508   -2.72120671160917
C         3.32732258136610    8.51282631910146   -3.23434733229936
H         2.48686805347493    8.60519607426942   -3.91798922873353
H         3.46638356964888    9.46307033087465   -2.71710225947100
C         4.61172464325240    8.10656497133549   -3.94472940081677
H         5.17795512563763    8.94437824378791   -4.35557416463893
H         4.41458830767295    7.39582752527116   -4.75463593743249
C         9.65137533819883    4.62627353220030   -1.43467285907044
H         9.86093632498979    4.51061542341348   -2.50356088924270
C        10.65090878160514    3.79215998477685   -0.66927591368682
C        11.83615859552904    3.41254033132607   -1.29125411378481
H        11.99999455212607    3.67335643195025   -2.32739432952883
C        12.80092400587611    2.69495333590022   -0.60865878913229
H        13.71677474355893    2.41453971149576   -1.10783747959872
C        12.58999793857378    2.33203653465588    0.71024375151496
H        13.34082978130786    1.77147660259453    1.24630359923368
C        11.40742844708732    2.68657715026005    1.33390272198260
H        11.23119784006189    2.40224041506518    2.36061068292473
C        10.44832049316257    3.41519667189634    0.65164623121320
H         9.53828167807121    3.68862726865811    1.16450624572298
C        11.76965472507782    6.03700737348164    1.66033479890281
O        11.40707493328184    5.50398993074576    2.60324194912258
C        13.65091345349055    8.00455766736579    1.75593928277003
O        14.31740286974452    8.40112421726524    2.59476725701875
C        11.09571190602154    8.56275929199364    0.97856803914261
O        10.42166102374813    9.26217812350260    1.57813074946249
C        13.20632001128472    8.79354217260844   -0.84123445222953
O        13.61361412505556    9.75693865049798   -1.30347965987285
C        13.96415430135052    6.01336051489758   -0.12154744984932
O        14.83850046705567    5.27767166943075   -0.16960532946778

