42
CSD_code = MITQOV | q = 0 | S = 0 | Stoichiometry = C19H18MoN2O2 | MND = 8
Mo        2.84763897865953   10.03819190891392    2.44381048959141
N         1.20328082794121    8.96176432539317    1.78874913497841
N         2.19927794688463   11.16162887031813    0.83098275230117
C         1.27076256635651   11.20911112019981    3.51935985602967
H         0.92258217861471   10.72972740542894    4.43908141054917
H         0.36757376900595   11.36957136475531    2.90958530960764
H         1.59881366010555   12.20665084493039    3.82597063359269
C         4.09488417996578   11.32583073224103    3.18030947861354
O         4.83903346890521   12.07509756351879    3.63579775571569
C         3.11331328111534    9.12602274779058    4.13281874786210
O         3.28862200605098    8.60167852979978    5.14107246838814
C         4.83890604226593   10.01247737556730    1.21795679792458
H         5.00026364885196   10.70382761143422    0.39401099402676
H         5.70498298709348    9.91462735931514    1.86623083307567
C         4.09219064274617    8.84724855942597    0.95078907751114
C         3.91905482051652    7.99473251677810    2.05873493158411
H         4.76601505838582    7.85828718014563    2.72483750158171
H         3.34697764227907    7.08252987459016    1.90495133444762
C         3.54462265947830    8.52814477550258   -0.41277724268662
H         3.34787538781271    9.42956554060305   -0.99520338462091
H         2.63147819585308    7.93303322856019   -0.35877463619964
H         4.28875038781896    7.94012868766373   -0.95688418851279
C         0.65220895546466    7.89099487247290    2.35060986856830
H         1.15068141199860    7.50464144525954    3.23021079202018
C        -0.49130995049637    7.27134315915965    1.86614658624589
H        -0.87353716682620    6.39642239423645    2.36833475706830
C        -1.12885642970159    7.77441195277773    0.74494028089083
H        -2.01498884653960    7.30581628075832    0.34451103870254
C        -0.60796321551541    8.92520194303981    0.14822340833176
C        -1.19235372969351    9.57417658297826   -0.97945405209994
H        -2.07469338973320    9.13036665416736   -1.41709615359234
C        -0.67366313275282   10.72145275793664   -1.47847211668501
H        -1.13299795532130   11.21387903873395   -2.32320486642974
C         0.47883818819130   11.32879352462082   -0.89761854775809
C         1.02492982709332   12.54033732304147   -1.32862062651123
H         0.58914344029590   13.06927125395173   -2.16248820929030
C         2.11810462544436   13.04583462991014   -0.64573544040187
H         2.55639243780740   13.98872498850630   -0.93325640375816
C         2.66177290829892   12.33679086552984    0.41610277805119
H         3.51233788995297   12.73192661469958    0.95622275910982
C         0.56206645792810    9.48419530556912    0.71447320315303
C         1.10328733739682   10.68024028977454    0.19376088902322

