46
CSD_code = MITQUB | q = 0 | S = 0 | Stoichiometry = C23H18MoN2O2 | MND = 8
Mo        4.20560815537729    7.41313384665855    8.50588907320206
N         5.93731484779608    6.68336698830432    9.40431849056802
C         6.83072817279612    6.03711267743664    8.61864398245137
C         8.02812208695254    5.52555025183300    9.13381437041497
H         8.73616484377401    5.04102813426824    8.48124153764340
C         8.29805161207537    5.64087367590582   10.47813595587486
H         9.21764266896482    5.25902808715469   10.89326538631056
C         7.34194503960063    6.24871078137003   11.29202369552272
H         7.49505858529266    6.33629498173007   12.35559418217295
C         6.19644067830377    6.74701126530735   10.71399980086365
H         5.43877010968837    7.22417193413397   11.32231177246013
N         5.20653757453537    6.42969974011335    6.96141362302351
C         6.40823399079571    5.87654121154872    7.24414762235049
C         7.12740643787283    5.15305289106077    6.28459330921783
H         8.09034254670281    4.73523423913940    6.52913658530242
C         6.59453552669176    4.96615701262218    5.02980125440663
H         7.13340446546262    4.41304501486892    4.27652919973067
C         5.33159780344789    5.49499284937363    4.76362970359591
H         4.86288690778207    5.35374279408246    3.80310751047505
C         4.68989496931565    6.21039335523593    5.74929570263325
H         3.70939705525429    6.63317457310746    5.57088293569517
O         2.66416016215082    8.37029917752331   11.01369466910189
C         3.23953289846213    7.99533068565792   10.09106120660688
O         1.51488760133654    8.04196941366996    7.11223138660594
C         2.51317765809177    7.78954721719712    7.62431637234114
C         3.51057296340268    5.48650304550494    8.85651768987190
C         3.28129538353417    4.29900366215044    8.96544894606819
C         2.99071263386105    2.91704775795095    9.09257990762183
C         2.38045663684005    2.41766013395409   10.24493978702009
H         2.12458904385714    3.10088991895634   11.04192774000152
C         2.10734366965034    1.06860633464562   10.35806884262878
H         1.63349754856644    0.68983258617305   11.25282639746540
C         2.43513938854108    0.19908546935807    9.32968865607937
H         2.21863052623429   -0.85548778856197    9.42143941981042
C         3.04043223732429    0.68685312089535    8.18225864869476
H         3.29608974391892    0.01036044815606    7.37836689674262
C         3.31958909852761    2.03394701731360    8.06138254012638
H         3.79093245436919    2.42048472486429    7.16745747347305
C         5.04484252642550    9.43192872696848    9.31966147391249
H         4.27006131141348   10.18014310305457    9.46568277966288
H         5.80385290242307    9.44940141662594   10.09840185032131
C         5.46478716549439    9.19668729768983    7.99795589831632
H         6.50652616543280    8.99192326488922    7.74707135611674
C         4.45003617693840    9.20558216983962    7.02769036890148
H         4.73121680104765    9.03525866930126    5.99099625066459
H         3.66175322374322    9.94522612087682    7.13965774787748

