88
CSD_code = MITSIR | q = 0 | S = 0 | Stoichiometry = C24H54N2P2S5Ti | MND = 4
Ti       -0.09080904452782    2.76805136590561    3.40413846991328
S        -1.21432532323286    0.62754025113681    3.25634405240097
S         0.11251503289046    0.40216649203667    4.76860418817533
S        -0.68910688830192    1.17847497769319    6.53013891854991
S        -0.98740801389646    3.18762297357090    5.99821007636084
S         0.76566485927154    3.94630925573527    5.33595400533294
P        -2.37818739061435    4.72996903483443    2.09719800018571
P         2.70741146221000    2.42171977304140    1.73676326868589
N        -1.14857710077668    3.96630015809850    2.64454352940367
N         1.26763246060583    2.53587427432795    2.29290702025870
C        -2.34929051935849    6.48567973506293    2.88966488420022
C        -2.79976335949027    6.32702245694204    4.34256317755781
H        -2.59351334748269    7.24606941335552    4.89182172814137
H        -2.23885070536070    5.52137209959864    4.81845479253379
H        -3.86473789575247    6.13201118810436    4.42559219993756
C        -3.20924805880980    7.54024259956500    2.20215183348554
H        -3.18359590488096    8.45806779776702    2.79041392299761
H        -4.24457558012467    7.22147140652199    2.12230848975269
H        -2.84065730852124    7.77724456770028    1.20798802870146
C        -0.88456485722693    6.92855280715010    2.95040774699983
H        -0.77712972936749    7.73510726183690    3.67479010506132
H        -0.51309384353428    7.29023503325444    1.99810649622743
H        -0.26257643794565    6.08860332895406    3.27808561505436
C        -2.21165632977889    4.83906093555564    0.17714562406506
C        -1.05259808158603    5.80010572847730   -0.08695069188408
H        -0.73323378199419    5.72000911357429   -1.12642155619484
H        -0.21442950585857    5.53278497644284    0.55490200299042
H        -1.33457006707221    6.83440183225041    0.08637219325610
C        -1.74753606368125    3.45877071693849   -0.30098822371971
H        -1.19979916875029    3.55863968084176   -1.23726978875588
H        -2.57260791044667    2.77863797045508   -0.48145572688094
H        -1.07902649434018    3.01867113127075    0.45100355040618
C        -3.44080735429038    5.30222502921854   -0.59673512472065
H        -3.17573981063934    5.40919702281349   -1.64923896901360
H        -3.79715854232608    6.26500403753768   -0.24119633618701
H        -4.25567677904378    4.58664811479334   -0.53555409002100
C        -4.02244578414228    3.81652982291794    2.53409482064576
C        -5.29204009036181    4.64839444902672    2.38258236678229
H        -6.15800430670488    4.00321682720915    2.53407060497407
H        -5.36812687368338    5.08556075667293    1.39118091342186
H        -5.34478979993057    5.44526801423070    3.11935478717078
C        -3.89358412373509    3.27891782546438    3.95885910233474
H        -4.68146837181711    2.55013792383011    4.14756015699084
H        -3.96569147842991    4.04713076469792    4.72064219316130
H        -2.93148977250730    2.76835016548709    4.06024369657045
C        -4.10541591387353    2.58343483876584    1.63262501274229
H        -4.88283272501647    1.91515997933407    2.00338118342598
H        -3.15859522953370    2.03904739672385    1.65590237318500
H        -4.36020825170760    2.83918236916204    0.60899179622270
C         3.57063815262955    4.14504723253947    1.83184909626279
C         2.49721726615274    5.18986884454015    1.51874719848969
H         2.78811650255274    6.15447620489566    1.93299962924298
H         1.55501925936831    4.87970777920751    1.99185756851055
H         2.34275494442549    5.32213959550478    0.45296807459612
C         4.79542714178724    4.31900070582507    0.93944297615262
H         5.24706190573287    5.29030782940493    1.14319938448468
H         4.54057444926657    4.29054234473518   -0.11598928889652
H         5.54153834094764    3.55404996335885    1.13540147893898
C         3.97558887592014    4.37460155835039    3.28790874113190
H         4.28503322564517    5.41194110385314    3.41777942745400
H         4.81114320070344    3.74894157060009    3.58395102027422
H         3.12481949328868    4.19676588304204    3.94824115889886
C         2.53471644373632    1.84107898485780   -0.09101391459225
C         3.79544017271322    1.31427724472790   -0.76603316320111
H         3.58525647026801    1.13907632593749   -1.82176008879531
H         4.11991335975620    0.37019128541375   -0.33660291951820
H         4.61275814896206    2.02705475129188   -0.69946704742686
C         1.42010107402568    0.79026821736530   -0.12277562732547
H         0.98544502692553    0.74201856207382   -1.12040749348639
H         0.62898996950776    1.07097869657421    0.58110882812000
H         1.77488714191110   -0.20422197100917    0.12566283500961
C         2.00484111309994    3.05320120119854   -0.85793684863436
H         1.63194013850003    2.73894981487894   -1.83302255081587
H         2.77727012792753    3.79661945806244   -1.03033515842260
H         1.18214342232324    3.49526216699588   -0.29815294232260
C         3.71801309666336    1.13190493267128    2.75707378049120
C         3.47181213890768    1.41452589362604    4.24267332770269
H         3.49505668471468    0.48479367196500    4.80976430041947
H         2.48399345111053    1.86590884548226    4.37867213343769
H         4.21618171922471    2.07686758559986    4.67232652553054
C         5.21423966249978    1.07250620898272    2.46741779325659
H         5.65070264366569    0.25062737965367    3.03589504176876
H         5.72073125608986    1.98582770717172    2.76773781808174
H         5.41385453925693    0.89673848214776    1.41457577252687
C         3.08160903017582   -0.22352539664763    2.44658640857795
H         3.43143111596644   -0.97122285602138    3.15848627459823
H         3.34259609400572   -0.57387455374479    1.45232000285822
H         1.99576330514923   -0.15421893100488    2.53459802572923

