84
CSD_code = MITTIS | q = 0 | S = 0 | Stoichiometry = C33H46O2Si2W | MND = 9
W         7.41263030927123    5.61383108965607   12.24513352218070
Si        5.68891077990357    4.99785739313380   13.88932009412042
Si        8.45831091017056    7.98163763138051   11.98265796190485
O         5.25355565802757    7.70807018981627   11.41765713942124
O         8.55901102645143    6.68644077298335   14.95239602868534
C         6.04461909382332    6.96109722460188   11.82252103039859
C         8.10525288286066    6.31637487611588   13.94449899798187
C         8.28867691265555    8.76254845090462   10.23039427746341
H         7.26772325127759    8.71417962539222    9.86952430445851
H         8.92859352447571    8.29231725252593    9.49218662488639
H         8.57100093336673    9.80954546815847   10.27392974242570
C         7.71611255188597    9.34742224467110   13.12528302686894
H         7.87938918924069    9.11994254612843   14.17354547401740
H         6.64601368327587    9.45241848732306   12.97841926834342
H         8.17237634257503   10.31245691166368   12.92465246736694
C        10.35042198126925    8.02868662859255   12.36582557793252
H        10.58295720062156    8.91531789973336   12.94594078782308
H        10.94597434801540    8.06837165783708   11.46048501934679
H        10.67543215555956    7.17245747200961   12.94823675070950
C         5.55662992518015    3.36051544223825   14.90259923434606
C         6.62074561976514    2.92096455488509   15.70595792934845
C         6.51964267587512    1.72597075753619   16.40582067133455
H         7.34776056900582    1.40849524655215   17.02480233725564
C         5.39049214919299    0.92877399716452   16.33012456241683
C         4.34871502182271    1.35370461784138   15.51806287608216
H         3.46202943626149    0.73995809553592   15.43722748928750
C         4.41859601863051    2.54208567951279   14.81073841463617
C         7.88691441511998    3.70880079289921   15.84466087544215
H         8.28412243559564    3.98980919410560   14.87059790431333
H         8.63914818502982    3.12941186588939   16.37612910610756
H         7.71973366638883    4.62828174468005   16.40153368029404
C         5.28900107474091   -0.36155768461383   17.08308225264504
H         6.14836050199328   -0.50307857518878   17.73355564592243
H         5.23782574992213   -1.20026404597869   16.38898728683372
H         4.38445676794345   -0.37742569791409   17.68931578953338
C         3.25764101806404    2.92982862363852   13.94740362734355
H         2.50863796909941    2.14137464216304   13.93531506538301
H         3.57820135594513    3.11446733180736   12.92463585002707
H         2.79558258415115    3.83959982838555   14.32371104492991
C         4.21571030286910    6.07447155751418   14.49303863200110
C         3.13786888544836    6.39920221934181   13.66235474189758
C         2.13841864712548    7.24738874917843   14.12280779100507
H         1.31116749495317    7.48318127021614   13.46750847238440
C         2.17832064328872    7.80011184603786   15.39122708850487
C         3.25583929610806    7.48440868289208   16.20735939084437
H         3.30938077269245    7.91129652410526   17.19934978586999
C         4.26471588952404    6.64107166607818   15.77600688866535
C         2.97999216710780    5.85713893439611   12.27243214176267
H         2.10277631795014    5.21222943890895   12.21511343934608
H         3.85143508465114    5.29377795424507   11.95399375959912
H         2.83217168623826    6.68053902161282   11.57636808926926
C         1.10553888178660    8.73520118712012   15.85836979757249
H         1.34805921914454    9.75484886163741   15.55740762499833
H         1.01713866770662    8.71580703574756   16.94211373637101
H         0.14496606694416    8.47547627049290   15.41903282325069
C         5.41040436814256    6.34088171949437   16.69286318203330
H         5.29532706679599    6.86637575171425   17.63794553639276
H         6.34996879725840    6.65362116180719   16.24089834727422
H         5.46172789348566    5.27299739091861   16.89895367031250
C         7.80021830986223    3.31654138245105   11.78198817542315
C         6.96256508847455    3.88563035537407   10.76208244841813
C         7.72054132823170    4.86232365712273   10.06369926718523
C         9.02338070403512    4.91250074538401   10.65121113123725
C         9.05852864533466    3.97179636942844   11.72452362808688
C         7.50991859295935    2.04117359179492   12.51703768800950
H         7.82561775268505    1.19395807561612   11.90282944182094
H         6.44862507062866    1.92555945791774   12.72678429311065
H         8.04400835239247    1.98405374349975   13.46248172148573
C         5.64120958696425    3.33503841414550   10.30704456723640
H         4.98703316593987    4.12562318376020    9.93924619768659
H         5.13011918420145    2.81160941927171   11.11407663757992
H         5.79409076558895    2.62317836873165    9.49182897983084
C         7.30210898128114    5.50581746284412    8.77428338482276
H         7.90457809802527    6.38368046514598    8.55659337360673
H         6.25637692366134    5.81163609529506    8.80575298401360
H         7.42135871276355    4.79840610188548    7.94939746636525
C        10.24615062463683    5.50943945765115   10.02523844591341
H        11.00104560522740    5.74221496473147   10.77170434173717
H        10.01854209209204    6.41643903863832    9.47216442217490
H        10.67648258331332    4.78769560834427    9.32501975272599
C        10.30155460736035    3.57256185045311   12.46849929384252
H        10.92841511775070    2.93831642471625   11.83665663656591
H        10.06104264343052    3.01328871185139   13.37106572157886
H        10.88975943951649    4.44449957675891   12.75517532040976

