109
CSD_code = MITVAM | q = 0 | S = 0 | Stoichiometry = C48H52N4O4Zr | MND = 8
Zr       14.27281768427865   13.66912535764431    3.86149392936685
O        14.98199557332484   13.30421956811450    1.98712141753903
O        13.54814998172127   11.83186122803997    4.01230365452614
O        13.64956588947368   15.55731509066836    3.42148440894790
O        14.92543521498114   14.23293767693581    5.64571186554785
N        16.21886641841921   12.15666197455833    4.36769109009908
N        16.42774925169409   14.87358376010343    3.54756362126933
N        12.18113065171553   13.55506387084116    2.51409519564883
N        12.25049379942478   13.86916222568753    5.34312420970447
C        16.14471961598867   13.01513393804562    1.45388972046435
C        16.60134125688553   13.66797219040250    0.27927257844970
C        17.84888261244777   13.38521345778793   -0.23706693151371
C        18.69790355771996   12.44915959351583    0.34378150125314
C        18.24641388720776   11.78190224856902    1.46853123597226
C        17.00631762162391   12.05172371640993    2.02746476413753
C        15.70420227978059   14.66356545871253   -0.39482872036972
C        20.04831043390996   12.17287287086442   -0.24941941274906
C        16.53032326301278   11.28337605239708    3.22471744842344
C        13.73012040191656   10.61650811939830    4.47650386516010
C        12.80431721767818    9.58486814473256    4.18163783703596
C        12.98687545694424    8.31930661288819    4.70312530584768
C        14.07219823996436    8.00339891031735    5.51217144536364
C        15.00320993704644    8.99780321639368    5.76414840202191
C        14.85299837849029   10.28141687683901    5.26330408998815
C        11.64337271689147    9.88122811628911    3.27284107002670
C        14.23230229781677    6.61717705433322    6.06447116700622
C        15.89849855936346   11.32861862849844    5.54196437164443
C        17.39006954696051   12.97622140739027    4.67471489422338
C        17.52396909865358   14.13234826569362    3.72059455593007
C        18.74348888899351   14.46068124025920    3.13031366703416
C        18.81350767500602   15.56785306532953    2.30735768247069
C        17.67017060352435   16.33279101376463    2.12554893614328
C        16.50715371202985   15.94877014283700    2.77314400174489
C        12.50848182337226   16.20377500516576    3.41816407075612
C        12.13959148191012   17.04480073167732    2.33594995087806
C        10.91342938948142   17.67674067549241    2.32829186188274
C        10.00201062413721   17.54131975454607    3.37013212792024
C        10.36845021311724   16.75304770566311    4.44640631138793
C        11.58470154423564   16.08769533390691    4.48250049195265
C        13.10547421796423   17.24092724126199    1.20502266668417
C         8.67635530646613   18.24270612030289    3.31982119583883
C        11.96661586450828   15.27253375648866    5.68256390295103
C        14.67516594733065   14.28798836805683    6.93410287910840
C        15.57599720874480   14.93363760460691    7.81750468242763
C        15.32118884326474   14.95554694175995    9.17453983831339
C        14.18599272878530   14.36929737498819    9.72232646482068
C        13.27996861455269   13.77968004041074    8.85609176958606
C        13.50130630366016   13.73416272300815    7.48863070848507
C        16.79204081998345   15.61509707867090    7.25319337148239
C        13.95031107076560   14.40105738646276   11.20407102494047
C        12.47939563149016   13.10410501948671    6.57979494950944
C        11.09497012836787   13.30465512037441    4.64719414508293
C        11.05303680566903   13.73196686026325    3.20479721892741
C         9.88126755148856   14.19483216583232    2.60788759765754
C         9.89537932024483   14.51711752394496    1.26483956135727
C        11.07096986279756   14.33398301313391    0.55062832359887
C        12.18149821066410   13.84417404769865    1.21843384900228
H        18.17599894304903   13.90875319166967   -1.12598219445945
H        18.87539101204462   11.02991585597042    1.92860664833307
H        16.28192544778017   15.39887547630092   -0.95085924901854
H        15.10177513727059   15.16692745902200    0.35830920719967
H        15.03076352738027   14.16042074708287   -1.09099819595355
H        20.60062363617049   11.46105513514651    0.35933015028352
H        20.63008294864774   13.09124648551406   -0.32543164866733
H        19.94777791656015   11.76056491092693   -1.25336364550813
H        17.29897014683146   10.54600801876375    3.51830187469938
H        15.61933738632314   10.73831089171125    2.95422669378018
H        12.26522265771500    7.54875037399084    4.46611783407299
H        15.87286766901330    8.76984650738229    6.36713488249277
H        11.49402458441644    9.06460548209876    2.56835838630025
H        11.84234329378584   10.79977330032738    2.72071701082467
H        10.71868342106186   10.00251177663417    3.84067763908463
H        15.13288576739007    6.54291592944209    6.66889499690678
H        14.29621031355167    5.88816011386196    5.25680611237774
H        13.37670451488579    6.35109273238298    6.68472375306827
H        16.81229914504593   10.81589851834049    5.89480034220178
H        15.55462981175403   11.99639212400137    6.34352621574824
H        17.25322395731107   13.39516018319419    5.67738626552467
H        18.31223650946921   12.36900877695177    4.66517681442250
H        19.61306982315886   13.84540352981731    3.30208673714295
H        19.74076807515264   15.83343649824952    1.82206510422286
H        17.68339240079843   17.21012464259831    1.49834368013880
H        15.59340379921938   16.52395216389345    2.68916461001655
H        10.65377622923877   18.30041704599496    1.48277758577965
H         9.68995569979173   16.64879701038531    5.28402007839565
H        12.58427203064640   17.48995913101359    0.28306287165514
H        13.80154906417378   18.05014209889596    1.43372070893212
H        13.67932340790235   16.32734331007362    1.06402844629990
H         8.07281237687796   17.99344095934970    4.18930734485342
H         8.81575765089432   19.32344010958081    3.29676475590754
H         8.12642674373745   17.96067073640578    2.42208370705877
H        12.86829267961743   15.70442045023349    6.13058162673320
H        11.15491363473165   15.31723074628109    6.43100002372713
H        16.02526120781341   15.45201175806882    9.82918412499988
H        12.37326369308295   13.34205707634947    9.25391088149938
H        16.95166203981872   16.57464326365995    7.74226048774570
H        16.65307163699410   15.77525536637757    6.18401339127693
H        17.68894519882292   15.01152996685606    7.40645585295432
H        12.99336375231565   13.94919827942991   11.45316976864946
H        13.95637515495560   15.42658900083449   11.57216761740675
H        14.73556994990611   13.85567540961087   11.72752910846664
H        11.53093488515172   13.01347038709241    7.14069909455160
H        12.80304552034209   12.09307952100002    6.29781937466231
H        10.15329588784497   13.58257695967991    5.15231809001801
H        11.19515869922616   12.21414945803282    4.66110768446326
H         8.98399695547072   14.31581877977505    3.19476250547895
H         9.00714672824651   14.89564854755748    0.78151433851130
H        11.12180374217872   14.56246851195103   -0.50221880402916
H        13.11644234654342   13.65596660275633    0.70537747587843

