99
CSD_code = MITVOA | q = 0 | S = 0 | Stoichiometry = C38H56N2O2Zr | MND = 6
Zr        3.99211258270759   -0.98614075978856    9.29378285038950
O         5.82915131492656   -0.77378362053651    9.79368128854151
O         2.11699127156430   -0.61833593245325    8.99030912203405
N         3.81138065143571    0.75494785300584   11.01955239609951
N         4.17988043631038    1.31244433921511    8.30452734685753
C         6.63261127162830   -0.04226631825956   10.52587987093113
C         7.98252910098615    0.19807162049949   10.15840485452340
C         8.77319173238581    0.95563503728146   11.00045307256568
C         8.31772939370450    1.51185293786003   12.19588335352666
C         6.99352300489486    1.29298806353012   12.53350470888036
C         6.16056307636152    0.53311192820264   11.72560547938914
C         8.50522246474952   -0.37490995915319    8.84609255908784
C         7.66513556512227    0.18971388868598    7.68878912458950
C         8.38240982592470   -1.90503188108138    8.87602409392774
C         9.97308205960218   -0.02241358348257    8.58189515831616
C         9.27453799396396    2.32695439803353   13.05330446134596
C         9.79260754058226    3.52259370098723   12.24099272124677
C        10.45331043594597    1.43921970233813   13.47568405382892
C         8.61058990690395    2.86864583065800   14.32247981498965
C         4.71543937450094    0.32521985503033   12.10122458608986
C         1.32841984215353    0.40873328923370    9.19360818418065
C         1.46026191077918    1.15951078211186   10.38476049403795
C         0.69442922307304    2.29170449700729   10.59851471179982
C        -0.22345517978479    2.73531318531620    9.65816960358834
C        -0.40123938072178    1.94916678824247    8.52384962520806
C         0.31550562980930    0.79103336951218    8.27646215804748
C        -0.00128991978087   -0.11219790022679    7.08850652313484
C         1.21222664025517   -0.21353643069293    6.15545652272571
C        -0.34758033185702   -1.50962003879936    7.62513616679389
C        -1.19243258083291    0.38330462846251    6.26094095638161
C        -1.02563958549499    4.00152405345798    9.92434063913812
C        -1.95538682350723    4.37036885192178    8.76519043037413
C        -1.88596422390246    3.79182947108721   11.17871782818231
C        -0.06729044981785    5.18002004639217   10.14960812243518
C         2.40815770808468    0.66281141171619   11.44580104881221
C         4.10289485376689    2.11639699326656   10.57489663884487
C         3.74933497806577    2.28141073535430    9.12185971559454
C         3.09253742663818    3.41497116199387    8.65170533843350
C         2.87717646569446    3.55343400493074    7.29378720799630
C         3.34781970145887    2.56238815359667    6.44413052525720
C         3.98263678911616    1.46239382831739    6.99603481387417
C         3.61186960790689   -2.79654635777464   10.60313332696885
C         4.39177586426633   -2.15825044990833    7.40193559373084
H         9.79882226929202    1.13140229408999   10.72404270957333
H         6.57764806537106    1.70677165257301   13.43967639267416
H         8.03192971188831   -0.19828174509341    6.74005448270955
H         7.73541196002770    1.27684289525195    7.66954694146614
H         6.61765215450822   -0.09613796975956    7.80599554350705
H         8.75068576854481   -2.32893374872793    7.94367526252534
H         8.96938208819957   -2.31107759357685    9.69776400509834
H         7.34272620846383   -2.19963194665034    9.00857723094480
H        10.28067344433806   -0.45850811277083    7.63332011694378
H        10.61990936290968   -0.42373604497599    9.35871403536816
H        10.11596049607870    1.05420483969849    8.51723092419824
H        10.46617178303936    4.12603518441472   12.84638279698128
H        10.33175172178343    3.19529956559929   11.35666179248009
H         8.96158352166348    4.14798964290799   11.92072007832991
H        11.14287912641531    2.00032940388941   14.10349691453205
H        10.09222139683740    0.58099785696358   14.03822513970537
H        11.00014441443721    1.07276805268852   12.61168463264819
H         9.33811502683135    3.43650400095795   14.89935184236800
H         8.24516220720369    2.05753358404644   14.94773407391309
H         7.78395819777163    3.53229139452683   14.07881218831831
H         4.49563205279585    0.88486130350015   13.02807375214554
H         4.52490446548097   -0.74518991011373   12.28084107458297
H         0.82019957345631    2.82708179845989   11.53027612182118
H        -1.14535009837791    2.24785655977810    7.80858972513014
H         0.99510654111066   -0.90079924575367    5.33959487423862
H         2.08020435394911   -0.58309262453687    6.70256716865194
H         1.44179428673847    0.76316308932097    5.73334163400717
H        -0.59918860552987   -2.17624389523679    6.80258988639345
H        -1.20011830622758   -1.45237188672396    8.29932765282082
H         0.49914064516328   -1.92737712919726    8.16573992910925
H        -1.38351519528945   -0.32189985587421    5.45433775809763
H        -2.09248251910193    0.45008766189211    6.86755846451622
H        -0.98892306871891    1.35399877075238    5.81360900832898
H        -2.47108794909061    5.30086672481760    8.99544491309364
H        -2.70773819514069    3.60184607283243    8.60708293188339
H        -1.39414348387146    4.51432276206207    7.84471108474323
H        -2.49095202114901    4.67490685512326   11.37502627428059
H        -1.26883259686519    3.59960574838350   12.05199733311983
H        -2.54936499504888    2.94138388230507   11.03849208984910
H        -0.63026880144097    6.08630940526661   10.36429134052943
H         0.60172191876957    4.99328483876520   10.98528631893506
H         0.53149703381209    5.35150588857957    9.25727725726416
H         2.25562278613736    1.25050428459070   12.37030297696396
H         2.18892034283388   -0.39502888949589   11.66079072106870
H         5.18476102113513    2.28359853869851   10.67454544992893
H         3.57736573408708    2.86711688743275   11.18572933622512
H         2.75644319523698    4.16916916004249    9.34510843515551
H         2.36530913042163    4.41984875464516    6.90292391433569
H         3.22789710474225    2.64463475027144    5.37537406879335
H         4.37723945184702    0.67337748477043    6.36386440881736
H         2.85736390232948   -2.65303608682006   11.39291016856207
H         4.53805726560573   -3.13560937298810   11.09267764399960
H         3.25623985685544   -3.63121402320215    9.98041642006839
H         4.81983107054468   -1.59328524987049    6.55928367395320
H         5.10564187849422   -2.96544877545222    7.62953732069893
H         3.47811612913664   -2.64657865807078    7.02939467091187

