36
CSD_code = MITYEV | q = 0 | S = 0 | Stoichiometry = C15H14N6Ru | MND = 8
Ru        3.78184826293737    8.65048933898899    9.52928944066145
N         2.45033062834775   11.05681752742198    8.47910534526375
N         3.64394790750754   10.56358264202405    8.83440323502763
N         1.13297274084693    9.85763770048637    9.96651176612724
C         4.64475496838226    6.68714716904188   10.17064976378278
H         4.19992783771788    5.71091634358835   10.30687248140906
C         0.67452261617960    8.62871639080427    6.79336180543854
H        -0.18165324859972    9.17924141884177    6.46324640744070
N         2.09776976486274    9.15240353538713   10.57503546358053
C         2.32997745225746    7.23032557093043    7.17864494989338
H         3.02086188329737    6.40848034112544    7.16888618575992
N         2.44779627905529    8.23025823770944    8.04259290263116
N         1.43677394956438    9.07653659738832    7.80282502661430
C         5.70484295859599    8.66867489618854   10.67446369413887
H         6.18569990846196    9.44668392892182   11.25209698029566
C         1.21701444159131    7.43958875707508    6.36127416609394
H         0.86594272028813    6.80808524072905    5.57158895679286
C         5.34491458770155    7.12847268941424    9.00919874831791
H         5.47660788309370    6.55995376793213    8.09763534242275
C         4.89728311037431    7.63275738533489   11.19715578980112
H         4.62075550875147    7.51904611542073   12.23737987526861
C         5.98961751345254    8.34383006758699    9.31261329406870
H         6.70357205948309    8.85227544166572    8.67781609958135
C         1.68790491869490    8.92871500902726   11.81697055439228
H         2.28381598354797    8.37565011163852   12.51794390174432
C         1.22003457172760   10.28760123738891    8.57903604549493
C         0.11300452451407   10.08739167677598   10.80724894894505
H        -0.74818656025895   10.63822169472336   10.49079330731919
C         2.56947999834370   12.32411651197317    8.05451047364347
H         1.71432087742288   12.87966642945224    7.73015715874329
C         4.53650147485401   11.52439375274082    8.63476149386284
H         5.57890994384279   11.37916142351765    8.84810379068490
C         0.43091984849048    9.50448884584233   12.01310188610043
H        -0.15410914951468    9.49188618988771   12.90937350885315
C         3.90076987160380   12.66466632813876    8.13825737169197
H         4.35515196258047   13.59901968488562    7.88079383811159

