74
CSD_code = MITYIZ | q = 0 | S = 0 | Stoichiometry = C33H26Cl2F6N5PRu | MND = 6
Ru        6.31674640464577   18.65616199503882    1.54700436404127
P         5.83226569845387   16.43445564489645    0.99414206347326
Cl        6.69411959440570   20.95986523466175    2.05083802321354
Cl        8.58545104550652   18.33069480684737    1.93242624753495
F         2.62278098090865   20.67025423512566    5.50953912019677
F         2.60296747971338   18.85935629968961    6.66162186397334
F         1.68277030647520   18.90484549902785    4.72133655202766
F         8.28179277561973   17.58507534491512    5.00896952182979
F         6.92385333968532   16.08095659724556    5.70002004855277
F         7.37637290295839   16.20917569344130    3.60628776201166
N         6.42463289677138   19.16996207872740   -0.39579140403112
N         5.23283893465127   19.67219598833564   -0.82804308577547
N         4.56732288074453   19.32752308723954    1.31026731148267
N         4.48596459035254   19.07981492543739    3.55674336846901
N         5.66464358194823   18.44757696246088    3.37594213317674
C         8.67153406951928   18.74099860297343   -1.28538355061574
H         9.20083333560268   19.37107594300465   -0.56993324444470
H         9.17157948068847   18.78006426168168   -2.24874091870286
H         8.70733505253829   17.72905734929027   -0.88162878509301
C         7.26980013341839   19.19977242444132   -1.40731073137084
C         6.60726326498905   19.71486405410583   -2.53737843332915
H         7.02775058697741   19.85476484170543   -3.51200300796790
C         5.32242119471796   20.00389735041931   -2.15119000187007
C         4.21382180442029   20.52843944793362   -2.98661562603138
H         4.51117370789842   20.47384634306160   -4.03062672761704
H         4.00123487435201   21.57159801666904   -2.75224869984265
H         3.30923593926549   19.93788000107940   -2.85012289301975
C         4.24950151926595   19.88570147512393    0.12972353460437
C         3.10638638825794   20.65845273634089    0.00096411602751
H         2.82513867934125   21.09963076896789   -0.93621462563668
C         2.35270021699520   20.91354842984377    1.14192006888852
H         1.47114276414340   21.52858386104136    1.07062554116606
C         2.75942196175271   20.44527479693959    2.38234210034739
H         2.22293209028934   20.74100294308254    3.26311217320259
C         3.89286034448218   19.64673534046977    2.43134411007917
C         2.75477128702659   19.33646993302722    5.42467139692880
C         4.04152824972120   18.88024399209504    4.84182821563515
C         4.97753619256232   18.09610161032086    5.48188236479449
H         4.95141177461460   17.74969583222595    6.49443087845130
C         5.96867189624212   17.85058129114135    4.52991675452093
C         7.15304474319474   16.95710002826063    4.69712159216138
C         4.87764603408540   16.48688281854495   -0.56967342642754
C         5.63736957586791   16.53798146051145   -1.73949508483230
H         6.71053272175229   16.42007854256741   -1.67618607249446
C         5.03189691176885   16.72645781871816   -2.96616920612255
H         5.63350468972927   16.76317387974038   -3.86193914202973
C         3.65562419469988   16.86940571852191   -3.04613991999739
H         3.18021369791308   17.02204028405050   -4.00358954599794
C         2.89237137730716   16.80244081196388   -1.89375404365745
H         1.81726290360613   16.89511440234965   -1.94966733277823
C         3.49667792820629   16.61462260520199   -0.66157713731182
H         2.87749185719322   16.54354290471546    0.21913282578673
C         6.98954711208642   15.09502772479352    0.57730459639204
C         6.47143937129745   13.93307490503897    0.00262911809908
H         5.40647104376112   13.84791283351979   -0.17148802357800
C         7.31870332703115   12.89743066525325   -0.33698918807113
H         6.91708150851021   11.99707234750937   -0.77886418276647
C         8.68294567214385   13.01399526327842   -0.11062058982946
H         9.34215937960979   12.20159634976246   -0.37938235584930
C         9.19559075957605   14.16711031654824    0.45748820130202
H        10.25652348071488   14.25873616774617    0.63400699981497
C         8.35404058611617   15.21254088054243    0.80538851109637
H         8.74358378748647   16.11764884211680    1.25274073705160
C         4.73647902303872   15.64855011921082    2.22656132637461
C         5.11747907292307   14.48445181668681    2.88877620616279
H         6.03309952906723   13.98560437263443    2.61016791136226
C         4.34254549848738   13.97852457879787    3.91704666770418
H         4.65554322079935   13.07982171511179    4.42663205812443
C         3.17983777978535   14.62414828053239    4.30225798363722
H         2.58097511944167   14.23142572317464    5.10967521578513
C         2.79224898521672   15.78458854247497    3.65301573937529
H         1.88900284853241   16.29850797244709    3.94822446636382
C         3.56988510840560   16.29711469284984    2.63091176560147
H         3.26197092871624   17.21587857472598    2.14838543031549

