63
CSD_code = MITYEU | q = 0 | S = 0 | Stoichiometry = C30H27Cl2FeN3 | MND = 5
Fe       -1.54115021147355   -2.94075410586279    2.93770836646634
N         0.00870150572599   -1.80887107228545    2.16599781854646
Cl       -0.25155766656149   -3.54767222922354    4.47732910755157
C         1.20049182698214   -2.10953699598136    1.66298083452512
N        -2.23635100495301   -1.33981793749525    3.27958838326295
Cl       -2.47224572149540   -2.88392914833199    1.00194276615056
C         2.04187267977250   -1.10475783233683    1.14482963821600
H         2.98945129916543   -1.39505556968495    0.71833321482753
N        -3.12335871734213   -3.48179718673581    3.95415806972646
C         1.65492018357658    0.21329789115875    1.14465135206150
H         2.29054408906900    0.97855541700899    0.72380233484205
C         0.41380194508756    0.55777427380404    1.70717719745193
C        -0.12462637439976    1.86927539435536    1.80842523944203
H         0.46273117892039    2.68941152127251    1.42191649466316
C        -1.34593803339997    2.10520582632022    2.36927986378788
H        -1.73368149123170    3.11204688596155    2.42229303473126
C        -2.13763233470718    1.05056189452105    2.89374552468910
C        -3.42540016018206    1.17016746131349    3.46974879440069
H        -3.88314845133285    2.14404630762954    3.55148796928216
C        -4.08832405260940    0.04641777567114    3.89615298084476
H        -5.08031272587901    0.12034071398550    4.31384342676031
C        -3.48454457840019   -1.22205573666300    3.79496267822139
C        -1.60409023386111   -0.24493546075075    2.81819853767993
C        -0.35540222446513   -0.50845837073714    2.21262743651815
C         1.62702167851926   -3.51362270602122    1.69143320760878
C         0.71406756584285   -4.54204871889940    1.45573386549223
H        -0.30074928384803   -4.30043528301237    1.15690676914068
C         1.11061647114313   -5.86338310043008    1.54026077059926
H         0.39451727454861   -6.65015893328610    1.35470084725858
C         2.42088340224861   -6.17765570879919    1.86224700413198
H         2.72796223513201   -7.21019185330887    1.93608084702541
C         3.33531461791645   -5.16342309748881    2.09232000576449
H         4.35635478727069   -5.40426169953620    2.34923954297836
C         2.94490896332769   -3.84031456447483    2.00641451044373
H         3.65640344242923   -3.05655115608283    2.22066273969894
C        -3.96827166792589   -2.50254037886746    4.19939107156850
C        -5.32182829423897   -2.67943671872187    4.81514192293903
H        -5.53231694830722   -3.73211895105963    4.98366241878221
H        -6.07526942036004   -2.26914461155608    4.14334470240836
H        -5.39045154093095   -2.14964919091862    5.76403599444677
C        -3.28096749092527   -4.72287253947741    4.59112703737997
C        -3.25586007527073   -4.78650532413937    5.99704777279478
C        -3.43192741210671   -6.01943688804471    6.61094855508269
H        -3.44219780562867   -6.06583683217320    7.68988753456304
C        -3.59748539561424   -7.17634881099290    5.87673995093602
H        -3.74141014843008   -8.12298629955630    6.37579339890032
C        -3.56285413518582   -7.11257467372410    4.49655810999591
H        -3.66883337242155   -8.01496974448543    3.91185084105574
C        -3.40074629395217   -5.90252530570392    3.84106735114443
C        -3.39914373915924   -5.87231311349827    2.34180144393286
H        -2.59215442736263   -5.21973521266997    1.99301913917286
H        -3.21185224287754   -6.87895945744180    1.96256035002466
C        -4.72630690637809   -5.36071279882288    1.78258230969813
H        -4.70708952994597   -5.38864397436088    0.69662468101845
H        -4.89272894124217   -4.33112060808023    2.08607971204250
H        -5.55229868815226   -5.97387021682500    2.13926693427007
C        -2.99539829081971   -3.59365807351570    6.87753366862958
H        -2.90692962918405   -2.68300881749042    6.28566232303593
H        -3.83374183011665   -3.47166077481612    7.57125250928231
C        -1.69760754332495   -3.76216812815511    7.66926272539536
H        -1.53823514619473   -2.89530003565731    8.30703532419311
H        -0.86278844372330   -3.84623341553916    6.97862604541077
H        -1.72555652068688   -4.65068199921975    8.29431499707942

