102
CSD_code = MITZIA | q = 0 | S = 0 | Stoichiometry = C41H49F5N4O2Ti | MND = 9
Ti        1.64626081321624    4.45279413573427    3.83905021190463
N         3.15983582811257    3.70617851157879    2.91863208179526
N         3.05944528743566    3.28724909191527    0.66721411572786
N         0.34979463392456    3.67026631555631    5.20197116365129
N         0.44588359057261    2.98919634319765    3.14408952699725
O         2.94805185897535    4.21145931094509    5.05551977449957
O         3.78421376599972    2.66493252070337   -0.38475141810532
C         3.88280081116995    3.71303708286533    4.17463949816297
C         4.34121221881210    2.32695216140370    4.59228771861656
C         5.64874585779130    2.06239012998927    4.97547798549067
C         6.02324968072696    0.77459700245753    5.32111071223907
C         5.09341481690958   -0.25076904891550    5.29441631967182
C         3.78087056925044    0.01485710639973    4.93732818657219
C         3.40467590424005    1.29976815400109    4.59110419159966
C         3.67623450019001    3.20567462634301    1.79855258538286
C         5.03584667914892    2.55106690283068    1.85073684689080
C         6.19536058192100    3.31327495623791    1.88634580180406
C         7.45519320688083    2.72538923606571    1.89226980260724
C         7.56617964746337    1.34033381415207    1.85142835694605
C         6.41713912006751    0.55877205909985    1.79620845144222
C         5.16962118279943    1.16935783961094    1.78462384369955
C         3.20776398848416    2.88279773100736   -1.67005827533756
C         3.26450714438825    4.36738191668180   -2.04337092627106
C         4.10091391341485    2.06372831534092   -2.60478086771343
C         1.76692583631719    2.36896839519684   -1.72629501279701
C        -0.04953142129896    2.74459908000550    4.34675890288894
C        -0.97663416577230    1.62348919485944    4.68390905886241
C        -0.49767888678073    0.36848463054884    5.04719476382056
C        -1.37831354230976   -0.65024725202115    5.36948536604937
C        -2.74464210373075   -0.43102573859984    5.32923976351722
C        -3.22951595119264    0.81380745101453    4.96422696137804
C        -2.35245700208780    1.83497115122734    4.64468023033847
C         0.26831318057793    3.60541903087008    6.64840700622476
C         1.13753705285632    2.48204898868337    7.22810888065518
C        -1.16553677141211    3.51853343568697    7.19044768425149
C         0.15809267135260    2.26033402419020    1.92027558018500
C        -1.32367935982153    2.33077543196362    1.52471697959093
C         0.62641654000914    0.80030762064467    1.93359974138363
C        -0.00969571094355    6.03132614518719    3.36165107040814
C         0.85444853601591    5.94365022756458    2.24143960494383
C         2.15418272755214    6.35281285083035    2.65421020445783
C         2.08636454130375    6.71193918900505    4.03072939911599
C         0.75366007533100    6.50904789766345    4.46693574886030
C        -1.50361887757053    5.87115540789158    3.38223953873486
C         0.49546263510922    5.64768327090039    0.81479665000219
C         3.30926159190222    6.58816569972619    1.72598408376033
C         3.17499328107756    7.32934585118866    4.86144100228207
C         0.19724309553115    6.97751754451627    5.77936738194370
F         6.10906889415303    4.64927203858091    1.93784709481097
F         8.55682331424693    3.48223915514839    1.94884865566549
F         8.77092035489207    0.76319357399180    1.87236113182028
F         6.52046715565567   -0.77385312614736    1.76393982368588
F         4.08032192829736    0.39849435796637    1.74278378896901
H         4.75958603706023    4.40299856340962    4.13277973225169
H         6.37473790042576    2.86328605007210    4.99674091920858
H         7.04419243713005    0.57131881505362    5.60876218647209
H         5.39067152808042   -1.25596556569291    5.55259727957040
H         3.05669526437658   -0.78650911711860    4.91908049616720
H         2.38740673190893    1.53832803426999    4.29759074094581
H         4.29202301201005    4.72173900991336   -2.00209766868681
H         2.87798441491560    4.51577115652791   -3.04782062861705
H         2.66921415959648    4.94899094349115   -1.34489457146131
H         5.12832114422372    2.41107577670769   -2.53348010242294
H         3.76048100562738    2.16442508339204   -3.63097596523963
H         4.07158935943871    1.01591262946615   -2.31831397465381
H         1.73374682770070    1.33393339813368   -1.39517790878062
H         1.39014876980130    2.43101130297031   -2.74354771046234
H         1.13257099398571    2.96274484874562   -1.07466320128941
H         0.56716618613425    0.18771298776754    5.07573515584239
H        -0.99441900810640   -1.61959870318617    5.65165572746599
H        -3.42913190139543   -1.22719228043259    5.58067023721844
H        -4.29429159690454    0.99124504340443    4.92920698870950
H        -2.73363995690952    2.80627334141523    4.36396961398244
H         0.70347147224751    4.55484324520792    6.98797790054238
H         1.21209187294173    2.59420404567633    8.30742942208710
H         2.13639981477897    2.54747966033800    6.79708730792992
H         0.71080972644324    1.50568748326661    7.01213618791582
H        -1.16561130915439    3.75448603210355    8.25203179127996
H        -1.81060503927439    4.23050114607933    6.67953561459402
H        -1.57681486581187    2.52090779649707    7.06201019949882
H         0.75384670923625    2.77951203771598    1.15907578161710
H        -1.43610638799422    2.05658563739126    0.47841814578962
H        -1.91946267667859    1.64626424451249    2.12392232861815
H        -1.70552690148219    3.33922837300825    1.66473556622190
H         0.50505742953723    0.38055639117043    0.93794458414527
H         0.04522696750814    0.20081069664488    2.62984047137020
H         1.67882009403864    0.74463816636694    2.19698399860845
H        -1.80867484710202    5.10332742297924    4.09628169610377
H        -1.88348671060513    5.60086250985943    2.39919674978666
H        -1.97445594350141    6.81148144452491    3.67757877806664
H         1.19561783677937    4.92228766866099    0.40121237187425
H        -0.51316679558651    5.25065154088169    0.72661848159203
H         0.55451787204246    6.56233581744039    0.21907085248428
H         4.26016977738957    6.56422619810739    2.25498109124777
H         3.33685875605294    5.83141800754247    0.94497034935297
H         3.20874433060244    7.56784466232740    1.25040714256741
H         3.37599798740827    6.72259904181332    5.74721819439953
H         4.09648230945323    7.41968492524059    4.28964113297622
H         2.87680969860208    8.32791490191446    5.18873306479024
H         0.93429082155233    6.87553655459012    6.57454325745477
H        -0.69745337738364    6.42198104953295    6.05143513229250
H        -0.07181715228323    8.03570023679758    5.70658828449098

