135
CSD_code = MIVFAB | q = 0 | S = 0 | Stoichiometry = C66H62NiP6 | MND = 4
Ni       12.59811175225980   14.97325533435625   10.99836823232949
P        14.69978786924038   15.09369020620609   10.35841139020528
P        12.11263866528011   16.72275929769126   12.21073451589689
P        10.50691742593389   14.50345541908074   10.43113180434473
P        10.16058351839831   16.35793740735742    9.38026354531826
P        12.02237087350832   13.96259444778505    9.05507462075673
P        12.78631018335442   12.31638043968096   10.19745440594329
C        10.14764072905808   16.04532498973786    7.59756417691400
C        16.08702386765204   15.82659219227414   11.28690043560434
C        16.66669463213481   11.66139568796751    9.66556430034371
C        15.33736236985493   13.46500229432753   10.04482584789468
C        17.15445637218010   16.44250959901379   10.64394074605325
H        17.13140525094748   16.57616918566769    9.57152869510550
C        13.07334048729083   17.35346363718944   14.76225378613082
H        12.20255684642137   16.82958160120429   15.13254632746846
C        13.27190196689132   17.47640278232815   13.39075274721980
C        11.29136255068341   16.31982464403334    6.85719964541268
H        12.13867141117212   16.78403739091268    7.34289498488049
C        15.05721470944059   15.99758522225561    6.37848551986833
H        15.27405605849197   15.47004022428987    5.46014202287923
C        11.21817673153584   17.71397416451776    9.71865779205129
C        14.78947398979923   15.98832059084864    8.76562967050955
C        12.14193208752621   10.72094055964076    9.64881294290992
C        14.50042336247791   17.34949057319718    8.73316234607952
H        14.26184700347639   17.86906977855174    9.65090747008231
C        15.35769983843839   11.19463263205119    9.74804048064661
H        15.02621250152488   10.17679286812074    9.63584676138371
C        11.85562538817207   19.88748713431224    9.73215021324507
C        11.19355004113413   18.92245950908709    8.99023755040898
H        10.77458094585033   19.03584940610222    8.00643761397788
C        14.40986266150519   18.12693810862978   12.92474039924964
H        14.58786935076432   18.18841014925010   11.86127768797530
C        12.30745097188771   12.44005636308086   11.96248875029347
C        14.52084926753183   12.29047924417748   10.00613176586231
C         8.45330798331953   16.84128501964870    9.78303814127458
C        16.65395774779054   13.04783403558151    9.86206177389368
H        17.50561473583168   13.70284294355230    9.86593736529069
C        12.25499286332778   19.30809493389902   10.94834654435430
H        12.78403245952936   19.81063460473871   11.73869788648656
C        15.05526202816026   15.31261357056311    7.58052217868756
H        15.26393132759465   14.25160394306373    7.61135127183255
C        13.17074371598087   13.11102484477277   12.83188526893575
H        14.15629101721471   13.40543418035831   12.47718018427371
C         7.84342412847013   17.83420070647887    9.02174962010959
H         8.35318621531976   18.22307819602345    8.15072263630911
C        14.78100370022361   17.35502523738075    6.35050993647266
H        14.77993985486138   17.88898944868307    5.41061626954112
C        11.85226911635807   17.97788473362629   10.97429082782959
C        11.09716347936391   11.93137802065187   12.42755746941538
H        10.42926100528070   11.42414994712621   11.74256851597830
C         7.81532037177947   16.34839594000027   10.91301174711010
H         8.29598530903377   15.58293303547743   11.50857548785372
C        18.24290541895833   16.88174152648238   11.37570265751083
H        19.07082878540884   17.35929030313040   10.87105011207471
C        17.86993321823893   10.78892302686588    9.40549061936426
C        12.10199530438594   21.32795163954952    9.35761552714663
C        16.12545707958176   15.66024203621896   12.66683551289644
H        15.28198426731258   15.20581614899570   13.16963061385060
C        10.55482285639016   16.78838936614292   13.17335809749865
C        17.98171140907272    9.74013917230934   10.51998769075273
H        18.08759430156875   10.22932435743960   11.48622762061266
H        18.84763799479746    9.10030905994192   10.35747074241744
H        17.09208735177809    9.11575098071816   10.54927593163976
C         6.57006709690402   16.83130775121418   11.27126758457441
H         6.07854594268399   16.44482246668651   12.15184506183168
C         9.05094549441777   15.43503600435976    7.00011084634025
H         8.17318981263233   15.21192395474567    7.59315204393345
C        17.21677154949869   16.09376796106735   13.39481480540722
H        17.23734744337339   15.96154433244393   14.46697555966966
C        12.35285801910437    9.59197219284735   10.43327683412068
H        12.85181433881122    9.69202471636656   11.38809003428385
C        14.49797953471459   18.02825258565898    7.52890360623215
H        14.26237068587155   19.08218609786047    7.50829862542364
C        15.30739375488575   18.68903038053048   13.81225529284639
H        16.18048450420011   19.20400425217900   13.43861807064922
C         6.59681399393009   18.30912679651690    9.37878551706632
H         6.12050479102387   19.07401051726622    8.78292771067334
C        18.27871540536290   16.70511927111165   12.74912592949165
H        19.13320853485792   17.04570521244663   13.31571602352363
C        15.09369981106440   18.58094305708406   15.17648882179541
H        15.79618581215454   19.01802671356710   15.87103802070518
C        11.51389275859539   10.61218758606136    8.41641075187670
H        11.36416816173494   11.50414937979493    7.81866677612818
C        13.98076679242558   17.90451527952385   15.64857543286622
H        13.81749794805023   17.80927215967032   16.71276247806243
C        11.32567569853646   16.00563204003942    5.51099910870845
H        12.21314011816017   16.22078704751169    4.93484101342136
C         5.95977482638385   17.81002427145021   10.50517004963751
H         4.98789626073489   18.18818361195320   10.78593864607801
C         9.92047088046813   18.00716468574259   13.38631709373266
H        10.36527210349366   18.91082374757673   12.99392112254529
C        12.82277841925034   13.25508539718964   14.16745619202743
H        13.48918656984651   13.76916005521371   14.84477103069275
C        10.77066491031106   12.06482833281074   13.76514713344884
H         9.84119975255877   11.65500175738049   14.13294442873292
C         9.97789829950592   15.62101363239185   13.65455557275564
H        10.47127589822724   14.67582376256204   13.46806548908187
C         8.72601424580381   18.05125974363796   14.07966083729444
H         8.23090610034719   18.99833666871023   14.23872890477327
C        11.08727118670521    9.37480434303615    7.96938358170745
H        10.59638353783275    9.28614686709302    7.01140242701124
C        11.62752120433435   12.72929721000583   14.63178615455569
H        11.36014495685329   12.83757448575082   15.67255310728417
C        11.92600163114343    8.35764850132907    9.98053063185180
H        12.08869137620059    7.47648330840692   10.58382054537621
C        10.22787270949308   15.41151215162987    4.90956554776261
H        10.25584605302754   15.16535584215068    3.85819495166169
C         8.15941973984428   16.88411872572840   14.56899973686840
H         7.22622812104364   16.92415164523878   15.11241354038548
C        11.27623266176130   22.22485083376311   10.29049851209580
H        10.21707639573055   21.99352272965352   10.19438806884344
H        11.42694276807463   23.27489743943295   10.04506905229528
H        11.56672382927602   22.06626923206252   11.32633872538813
C         9.09272214890448   15.12577734407453    5.65317141554359
H         8.24083649024642   14.65741376503995    5.18187854122476
C        13.58991909925353   21.66312774618062    9.52283816299911
H        13.90661961580916   21.51873652837405   10.55246451043898
H        13.77836080531972   22.69983176988673    9.24819734309656
H        14.19841523223068   21.02245163705500    8.88803358776022
C        17.69960675526333   10.08033735021254    8.05510123476621
H        16.80188155304858    9.46688630541544    8.05388407161152
H        18.55595101083675    9.44035789645297    7.84841974143258
H        17.61265564778604   10.81253947867792    7.25486826935384
C        11.29308051358958    8.24957372462023    8.75147016776336
H        10.96084360129950    7.28335097093956    8.40164169346564
C         8.78641402301274   15.66806376068468   14.35670966035334
H         8.34447948695350   14.75548148498772   14.73171007022275
C        11.68902047212155   21.60116742483155    7.90974737383933
H        12.23456301902037   20.95484106601699    7.22542562576693
H        11.90179880809953   22.63645474591368    7.64826103007763
H        10.62376213342360   21.42803028979770    7.77521290443775
C        19.15649223524983   11.61600312825782    9.37258236735793
H        19.11276875851508   12.36138415437153    8.58179885580534
H        20.01209966980417   10.96870266599540    9.18683601403209
H        19.31006975152840   12.12401597816683   10.32195287782427

