103
CSD_code = MIVGUU | q = 0 | S = 0 | Stoichiometry = C40H56N2O4Pt | MND = 5
Pt        2.24083651643033   -0.06793470005323    7.06917746924430
O         4.52559890748538    3.85725511473608    8.61238525600006
O         4.60698726704147    5.14779796553744    5.96301895704586
O         6.23304456838671    2.97039938426203    7.46938563827668
O         3.77000347914716    3.91443231854337    4.29555107798682
C         0.86565103430682   -1.57959436015724    6.54840157969156
C         3.97578607182505   -0.88623529270215    6.17158325076626
H         4.38746313070552   -1.75945350756082    6.67271293725667
H         3.91770393883031   -0.98615767749934    5.09067663565826
C         1.96384112285627   -4.27663067979484   10.11918240119580
H         1.09261118378501   -4.91056408138936    9.96546866902393
H         2.06629581881118   -4.08673509273530   11.18423630463620
H         2.84680318720791   -4.81766186541508    9.78632037920776
C        -0.92335388238580    0.20587665838407    3.92326598974749
H        -1.14242735745383    0.16056850569667    2.85738730436040
H        -1.54386512193536    0.98085233937333    4.36823838676912
H        -1.20110571568995   -0.74617015907224    4.36701293931761
C         0.23268380638406   -1.96251151103350   10.97772143670251
H         0.92235375384042   -2.24092258977698   11.75910547398554
C         3.84053502086893   -4.51008981728402    4.69022221756680
H         4.47642862705708   -4.58610806860699    3.81241104307880
H         3.88976434508070   -5.45333905004199    5.23031039812574
H         4.22990824021911   -3.72246423166398    5.32958172305535
N         0.69780518915011   -2.10326664852669    5.31226099711422
C         5.65413235300572    3.03314693830690   10.60654465985260
H         4.70948751648981    2.66065668359011   10.99628857654417
H         6.28267475524592    3.34565321807877   11.43562643112727
H         6.15436808221326    2.23257579632296   10.06715250006770
C         5.41106337019294    4.21108445488107    9.67325734751231
H         6.35755132239333    4.55667889071042    9.24466780158735
H         4.91515583774266    5.03242880131424   10.19514619267959
C        -0.36777265506535   -1.87113081230361    8.66491872226967
C         4.26191864289786    0.38665888756769    6.70931971764981
H         4.87514747925797    0.44159327754139    7.60982292253373
C         2.26422805052089    1.82130719920870    7.97292847346660
H         2.84106764459575    1.87054571320920    8.89694387175989
C         0.95287334021623    1.28527048453276    8.04165918429852
H         0.18799286618730    1.72626072354694    7.40343437878453
H         0.57633786289029    0.96464955775456    9.01129312002068
N        -0.09227074090614   -2.16681414325527    7.30442726197193
C         2.58149091553816    2.93031835975444    6.99640461053923
H         2.40543494914753    3.89792307783419    7.47910278416358
H         1.92249928387626    2.85732245444197    6.12678764995084
C         1.42967373023489   -0.55864584688312    3.55988244154652
C        -0.83300579505433   -3.04922541168527    6.55664820054359
H        -1.62886850069662   -3.62715663433771    6.97785548041837
C         0.53812999209507   -2.25968674682290    9.65556009227800
C         1.48716442999532   -1.82444023401077    4.16280916690018
C         4.12498479942538    4.02232657199000    5.44018463787392
C        -1.56196217322438   -1.21282875766984    8.98295516422808
C         4.03791905802275    2.91227653007983    6.48279577090968
C         2.28558519769535   -2.84859231294149    3.64478516644356
C        -2.55464805188964   -0.78443107947246    7.92554530266612
H        -2.11864011468872   -0.94420189908836    6.93580032147689
C         3.02215896152605   -2.59304966437414    2.49491298244215
H         3.64436008162424   -3.36834040889660    2.07553525378812
C         1.82817603036856   -2.97278985418938    9.32988923846833
H         1.84302218303541   -3.22314424903145    8.26493274992712
C         5.06055893305328    3.22907207598283    7.56590914927385
C         2.18884182455936   -0.34974298533227    2.41710139536131
H         2.17501853706370    0.61082306131523    1.93062122236006
C         0.55880659418263    0.53454908522948    4.13937045738477
H         0.76560736882167    0.57036684168576    5.22337380869897
C        -0.33411031593900   -3.01139735232394    5.30270523446909
H        -0.62667456137050   -3.53411582483703    4.41558087580692
C        -1.83311112043882   -0.95347032228356   10.31922548833662
H        -2.74947334087487   -0.45271810411274   10.59036926722003
C         1.84146861315003   -5.29768574346515    3.38092456710952
H         0.81239349098164   -5.08544824631624    3.09805710690222
H         1.86777405856924   -6.26164752047162    3.88441839999652
H         2.43351156360894   -5.36977018878966    2.47216542943517
C         2.39148549349488   -4.20631752964769    4.30321808107132
H         1.80342364025897   -4.21216261749171    5.22507678973377
C         4.40675332050746    1.58172817101744    5.80066761126140
H         3.78513080479175    1.46094316077968    4.90979118464472
H         5.45147328766811    1.65906037565255    5.47870918044254
C        -0.94265678021791   -1.31952054859371   11.30967315926888
H        -1.16658401895466   -1.10145105631335   12.34353922231716
C         2.97402540901444   -1.35627888322609    1.88609780382216
H         3.55503056202591   -1.17022999973869    0.99498411316373
C        -2.88587510823353    0.70494383299176    8.03911480862944
H        -3.42826221451143    0.92212787543167    8.95531924063147
H        -3.50587163411184    1.00925831029971    7.19839874181902
H        -1.97416189544569    1.29538912376477    8.03083578824716
C         5.34848788231849    7.41540434913776    5.85059794653296
H         4.73475056332220    7.67893183268318    6.70782744245098
H         5.44685559375667    8.28105358007532    5.20196406376308
H         6.33251274831390    7.12139404114196    6.20549694153875
C         0.83937064662674    1.92458522596145    3.57124524908786
H         0.54537172641698    1.99013726730443    2.52524428049017
H         1.88810777196721    2.19606443562142    3.66030723132098
H         0.25436442182555    2.65932189091658    4.12211894729771
C        -3.83423173188216   -1.61955640478001    8.03080430390442
H        -4.32033882473612   -1.45498249299835    8.98938936088777
H        -3.61702067473320   -2.68168077356114    7.94083051798156
H        -4.52868202202459   -1.34257454598274    7.24069979036888
C         3.00344329093868   -2.03156495934375    9.60124057125168
H         2.90089813193599   -1.13800088803839    8.96376861422745
H         3.94402973626706   -2.52494524168337    9.36854995930825
H         3.02061485289581   -1.71909750603822   10.64231427886810
C         4.71152296352680    6.27196433942735    5.08480623021870
H         5.31524913977819    5.98409647653455    4.21722037140804
H         3.70838743505160    6.53460186355044    4.73018912914100

