59
CSD_code = MIVHIJ | q = 0 | S = 0 | Stoichiometry = C22H34Cl2Zr | MND = 12
Zr        0.29865140137256   10.88441566697847   12.93378619863090
Cl       -1.27739972794292   11.41408301962091   14.59195876174183
Cl       -1.35417802593749   10.13553815474933   11.45990315063917
C         0.87876360834478   12.41244401354298   11.10159577486038
C         2.02683832411361   12.33350288490288   11.93110114013727
H         3.01092135320215   11.99858277434162   11.62857881227136
C         1.72056498764960   12.94330666776239   13.17438941133516
H         2.42320538476291   13.14705893003130   13.97379774090848
C         0.39525348186445   13.41717926388392   13.11062695839649
H        -0.10453509572025   14.00890050768142   13.86721323977745
C        -0.13382009707900   13.07259433547315   11.84874515986881
H        -1.11578376212594   13.34537323879643   11.47786709132412
C         0.76380306918054   11.97495567798220    9.66063908792867
H        -0.30455861420301   11.85565849491544    9.43583127747190
C         1.41910469787204   10.59982704697499    9.47741180258183
H         2.49319640229817   10.64299224231502    9.64568164218371
H         1.24451001168449   10.22385811959584    8.47321776844830
H         0.96886241143860    9.89211622413424   10.18263992379499
C         1.29691456640119   13.06316317641896    8.68030756393668
C         2.76835531651990   13.39646951896573    8.93013118634880
H         3.39990001748387   12.52023494463508    8.80817363179565
H         2.90633120692714   13.79768945321808    9.93046839144920
H         3.09891753708405   14.14716523735508    8.21575085590742
C         1.12621435102615   12.58953540059932    7.23346448576391
H         1.31774267562893   13.41411253968835    6.55028928384245
H         0.11288873770702   12.23430163862276    7.06064965524090
H         1.82242111402947   11.79091410012163    6.99231632982272
C         0.46821078314118   14.33734262734416    8.87371380224617
H         0.57954922104625   14.71983014904173    9.88486226848439
H        -0.58570787353739   14.14067653373454    8.69066428955074
H         0.79631153042028   15.10787143342984    8.17972908838045
C         0.53899563003363    8.81095498189056   14.23633126155638
C         0.98513949614375    8.52153380077410   12.92029690175212
H         0.56305885742384    7.78291309922126   12.24885415817899
C         2.17711956848896    9.25196025360513   12.68382000970950
H         2.83369309762257    9.12413532634866   11.83216310629690
C         2.47214838297382    9.99341314259610   13.84869335588043
H         3.38187083136438   10.55104646836927   14.03174913896328
C         1.45307328234416    9.74626471338775   14.79337408153044
H         1.42993108458860   10.11180070636395   15.81366293950650
C        -0.59898768767403    8.15828931853590   14.98444480782549
H        -0.87590926813419    8.82619042172446   15.81151961222215
C        -1.82795008855040    8.02102045022954   14.07988580885870
H        -2.12200386688072    9.00799351619872   13.71755475323851
H        -2.66841245640926    7.61045013929669   14.63194173886442
H        -1.63049942021256    7.38267558219482   13.22158928745047
C        -0.14903372757119    6.81536190915682   15.63907711570570
C        -1.31297713123335    6.20611406887339   16.42720332157062
H        -0.95363603410564    5.38020255353895   17.03761553932743
H        -2.08041606793669    5.81815010405151   15.76352615660929
H        -1.76212659222696    6.94545414380251   17.08651348512664
C         0.99551254814383    7.10108883545269   16.61733712634877
H         1.29721124177841    6.18404769241633   17.11866890754314
H         0.68273951305492    7.81568484085147   17.37550759168067
H         1.86030428425080    7.50240381498756   16.09544189260667
C         0.33740267414521    5.80404968540209   14.60032486662139
H         1.21196468695844    6.18090123982223   14.07646914297839
H        -0.43990590448289    5.58043521383845   13.87490528486402
H         0.61214407149873    4.87476996002465   15.09482283204683

