54
CSD_code = MIVJOR | q = 0 | S = 0 | Stoichiometry = C20H24N4O4RuS | MND = 9
Ru        6.33856824417845    1.71205480620026    6.88728931952276
S         8.42328778418722    2.31160099769408    5.97334545952655
N         6.07745749287621    1.70597270320392    8.86012492104563
C         6.37062960999793    2.76083273585957    9.63998014552295
O         8.37603546725741    1.33028195856627    7.12439627273730
O         7.50823271496230    1.69517057552458    4.96455958512739
N         5.85722113906903   -0.19373318924251    7.18444341614733
C         6.30371910777214    2.65772560954347   11.04040688767399
H         6.52142947449980    3.52783849236622   11.63938864409446
O         9.73075472734619    2.61726945072337    5.50025329159733
C         5.97407336418953    1.45373850716311   11.62138504355314
H         5.91488769925859    1.36208285912936   12.69471445861609
N         6.65132668985759    3.93325355560071    9.03243871930253
H         7.00486130831585    3.86916290285031    8.07000493573389
H         7.05558235671649    4.65737459140586    9.60305915225524
O         7.64301705066611    3.47878563362090    6.49657711640541
N         6.10471083925621   -0.69009754623764    4.94640095095609
H         6.59913765225579    0.20501388395512    4.85131442934265
H         6.32829635402864   -1.38975653616521    4.25787397467156
C         5.74736970383184    0.35222559381779   10.80896654044838
H         5.52800957290296   -0.60848466091400   11.24071072318174
C         5.82373285378077    0.50767708495235    9.43019305460556
C         5.69458043217609   -0.58349883763182    8.46881354329395
C         5.47290988007709   -1.91298013780704    8.80866000464865
H         5.33142249071965   -2.19956616244779    9.83592329851948
C         5.44989431386839   -2.86744676590420    7.80202527392828
H         5.27437116763033   -3.90539073149748    8.03801846120398
C         5.68229787162396   -2.47688522699681    6.50179789344863
H         5.70559917854915   -3.19463645094080    5.69715432687411
C         5.90710428062733   -1.12059649430615    6.21121284230889
C         4.29974074692166    2.92935454611606    6.72638177680243
C         4.35906446172744    1.97328031189991    5.67762552798863
H         3.77750105859845    1.05654553485463    5.74606121265991
C         4.82421315555110    2.35614702771261    4.40285991553071
H         4.77885309037313    1.63671115453802    3.59688748648246
C         5.33566873698051    3.61193435800985    4.16718304036590
C         5.32315840760975    4.54529299963917    5.21659236259529
H         5.71367965390915    5.53701461175590    5.04135830867757
C         4.79567511992124    4.22725101679874    6.44010061497194
H         4.73991627149096    4.98284486029474    7.21140717862647
C         3.31715002016586    2.80931479041437    7.88730907101414
H         3.80395337270903    3.17180719810008    8.79923858428656
C         2.11354882382585    3.71771415434230    7.59560451243207
H         2.41313780468127    4.75798702428713    7.51453452031033
H         1.38005009067413    3.63053725981405    8.39397860932754
H         1.64445105371050    3.42439249857899    6.65935292230725
C         2.80489168798972    1.39056058901497    8.13249882017432
H         3.62344121689862    0.67757304198510    8.17995280544315
H         2.12284010730297    1.08992459300862    7.34062071179509
H         2.26195040439060    1.35622053506751    9.07442475351357
C         5.91230470134556    3.97836564485394    2.83703349989700
H         5.77563084205160    5.03675619007653    2.62503138295198
H         5.46485220804738    3.38926477804407    2.03946193113346
H         6.98200614063487    3.76701607870063    2.85776776440980

