50
CSD_code = MIVJAD | q = 1 | S = 0 | Stoichiometry = C20H24ClN4Ru(1+) | MND = 9
C         6.14829082287033    0.73546879929956    8.47811312032786
C         4.91767586926131    1.42474625120309    8.97289558074480
C         4.28480489295795    0.98174743405621   10.16892176736285
C         3.16315431198398    1.65028982524599   10.67802008465954
C         2.60995766017098    2.78019839572724   10.01662498052759
C         3.21721893311896    3.18167207298267    8.80959597030592
C         4.37165725729351    2.53289517760288    8.30591309592721
C         1.54123182990695    3.64061299061932   10.64737404046747
C         2.23004779177478    4.61765776162913   11.60964554012104
C         0.46072637666171    2.84493182668941   11.37832776596981
C         1.87737334494922    1.82490040864898    5.78319056818453
C         0.98582052658103    2.41542167568899    4.87083624335984
C        -0.35010101459968    2.49902738595599    5.18964566263156
C        -0.80725847933950    1.94800392932702    6.38332516344948
C         0.11609600798677    1.39309673339403    7.25388396922890
C        -0.19924001425373    0.63014729910754    8.46185931555607
C        -1.47268980699354    0.32669096469466    8.91538059024536
C        -1.60690379316095   -0.53790869258338    9.99802390288917
C        -0.48630820039344   -1.11850625234324   10.54624451829118
C         0.78106737332959   -0.79195755803137   10.03387804252881
Cl        3.22591832648871   -1.01371816296054    7.45772525693696
N         1.92422205974119   -1.33091337880301   10.52420221403782
N         0.90217057929284    0.12108633794637    9.06067691994065
N         1.44005617976353    1.40363922723018    6.97751470792054
N         3.20255962612424    1.69767509156717    5.52812600741152
Ru        2.64571181198377    0.99706645946250    8.54496674966091
H         6.62383131350658    1.30001775428901    7.68018986745793
H         5.88888033606077   -0.25367780476625    8.09494072401246
H         6.85944604470821    0.59869237666778    9.29095608560121
H         4.73926569846621    0.17890747359341   10.73930510380959
H         2.75991767127085    1.34388424373633   11.63604527741205
H         2.85637633826143    4.07465696850074    8.30837425625913
H         4.87477204233231    2.94252617715694    7.43784997478838
H         1.05928444211217    4.22131449013647    9.85190829735919
H         2.97008950548081    5.21944164625557   11.08721595645294
H         2.72802353751142    4.07650660834205   12.41099553072972
H         1.49312339873198    5.28346223197004   12.04976052722064
H         0.85840689685460    2.35054753260225   12.26079012893013
H         0.01727352376722    2.09695137197404   10.72449590451559
H        -0.32613287460455    3.51995109409525   11.70377230455202
H         3.50508424960980    1.84318486459813    4.57826771229680
H         3.67510583159484    0.95159479589665    6.03266467953574
H         1.36343470083403    2.78467714396332    3.93137623286522
H        -1.04536888876748    2.95638433002212    4.50423607895200
H        -1.85643686903233    1.94674674638073    6.62114382098233
H        -2.34007648922172    0.74602842438664    8.43685802634038
H        -2.58577716655743   -0.77398248725631   10.38299760450403
H        -0.55939208885946   -1.82717572565975   11.35480015785234
H         2.71034464133403   -1.34856654323155    9.87966753715202
H         1.83356393109690   -2.13604571702570   11.12307643171470

