79
CSD_code = MIVJOS | q = 0 | S = 0 | Stoichiometry = C34H41ClNPPd | MND = 4
Pd        2.53515494531268    7.74341609328032    5.32535748247969
C         2.64212701207118    6.31144717523060    6.69907497914770
C         3.39430167987674    5.14366965821086    6.58781206269094
C         4.26294571036201    4.95149245160408    5.36220727805226
H         3.64506553545766    5.11904573561276    4.46596609495073
C         5.34968010493111    6.04003296932817    5.36683740798523
H         4.88440521163852    7.04325398148903    5.31121140645812
H         6.01473619372621    5.91474861615272    4.51401524817696
H         5.94155015464498    5.98119163989509    6.27956910470871
C         4.88863169849441    3.56691438050611    5.24202219109029
H         5.60108669212809    3.38835507896086    6.04450131980392
H         5.41939559654105    3.48449755792512    4.29555431898001
H         4.12024855633097    2.79714626240654    5.26934244996961
C         3.40927133563549    4.27500623765572    7.67177586214681
H         3.96249450457205    3.34981796497638    7.62352507538492
C         2.72242806971311    4.57727997000620    8.83257424390781
H         2.73323955258360    3.86244390806281    9.64159161036923
C         2.08329807713839    5.80004558197158    9.00426814003701
C         1.43181083173335    6.13039038402031   10.32951008208478
H         0.85757523860947    7.05561871145928   10.22820064304520
C         0.44846582647363    5.03754788781395   10.75471044979963
H        -0.27390026831378    4.84966451554540    9.96296140783248
H        -0.08974518928825    5.34733036559151   11.64839549624306
H         0.96419696847100    4.10724089875542   10.97586067498679
C         2.50078488027162    6.34574804451166   11.40385787779375
H         3.08713492720210    5.44118077008179   11.54520671854438
H         2.03886644452056    6.61035861071404   12.35297190425312
H         3.17751965596321    7.14677209535173   11.11206540499423
C         2.09375076060766    6.68506690971488    7.92705218594991
C         1.61695449423452    8.12392795263201    7.97969800145714
H         1.64153316923801    8.52598242995248    9.00586179400598
C         0.18300125174087    8.19779514769176    7.44255508909858
H         0.18105930874902    7.98818327565306    6.36279229288908
H        -0.27687714353437    9.16627539957918    7.62623417984839
H        -0.41707477061980    7.43788192968018    7.94026992336043
C         2.10671431223561   10.28926457778731    6.96000719238032
H         1.92610142538978   10.78119887939274    7.92677319409983
H         1.19534600460603   10.31021969881493    6.36199092260718
H         2.86737330308456   10.84810286302761    6.41435697285630
C         3.87908817270684    8.95587788718785    7.79650516091087
H         4.59630849974910    9.43508242507960    7.12770801286986
H         4.22360426476064    7.94563733956953    8.02128046856500
H         3.83746716710684    9.52921250586315    8.73465966531820
C         2.36099949290461    6.54398086296518    2.08370930170846
C         3.69649591281146    6.92272369018814    2.00057322955922
H         4.22954239677875    7.17959884013731    2.91030863332279
C         4.31643166083043    7.00829329303162    0.76761421501942
H         5.35109127617816    7.31122155574998    0.70259369045443
C         3.60402360816385    6.71921023779774   -0.38472023199931
H         4.08442065226351    6.79257832367421   -1.34952377044639
C         2.27072908081049    6.34870223336309   -0.30485618408959
H         1.71477379994310    6.13398039764515   -1.20620314101257
C         1.64489526967102    6.26168575277854    0.92527082676223
H         0.60172938507546    5.98451312475173    0.98788013689221
C         1.27638832429861    4.70167341970999    4.01963027919676
C         1.71391665953238    3.69072619345089    3.17344116382651
H         2.25180136864568    3.93893563591445    2.26865225121775
C         1.46606397704723    2.36703792118745    3.49334262450763
H         1.80665864531367    1.58345108266856    2.83206699746102
C         0.79209777154935    2.04583681051658    4.65957216828148
H         0.60911249549978    1.01108557277981    4.90940999140390
C         0.35660378126968    3.05179577260880    5.50821363616977
H        -0.16429568537769    2.80283044774208    6.42089180722912
C         0.59837656690171    4.37363380284811    5.19028481121663
H         0.27052284149968    5.16829936386842    5.84861536066587
C        -0.07943039627422    7.09378623815299    3.48084037690205
C        -1.11480649900584    6.27346167229482    3.04042201193408
H        -0.93313756023183    5.22354442684841    2.85405735120519
C        -2.38151824001653    6.79744693711764    2.85487695826506
H        -3.18086548172847    6.15648159270170    2.51157312815055
C        -2.62740313502289    8.13723750182804    3.10805326495743
H        -3.61893754771991    8.54012368714860    2.96180269034534
C        -1.60162829212580    8.95702743295439    3.54887739181276
H        -1.79079912675918   10.00242591653357    3.74454679738125
C        -0.33264942744848    8.43900708551830    3.73717943434785
H         0.48283154803755    9.08219485640642    4.05915342727600
Cl        2.91536475262716    9.58636081913197    3.89675995017617
N         2.56853644758582    8.91640216000810    7.15116692051526
P         1.61914350974904    6.47203856919481    3.74113050723398

