60
CSD_code = MIVJUY | q = 0 | S = 0 | Stoichiometry = C21H34N2O2Pd | MND = 4
Pd        5.36505230268072    6.70400576903635    5.33753579188617
C         6.80845744348011    6.12935981564405    6.59874279344709
C         6.73768410898569    5.12682970191628    7.56339024084854
C         5.45483236690462    4.33353647902982    7.70118449518269
H         5.21198428998616    3.93916658491444    6.70783245126934
C         4.32318667973064    5.28863115826504    8.11733474006419
H         4.21076077498872    6.09715487196364    7.36678181425555
H         4.54061918955689    5.73519931741369    9.08753842066447
H         3.38285001384156    4.74559853217586    8.18477858484079
C         5.53796511509454    3.16658980636464    8.67907344815636
H         5.69751645279100    3.51698279913274    9.69761775806666
H         6.34389466605341    2.49027393311449    8.40538914532906
H         4.60579437237408    2.60636504975981    8.65684107302416
C         7.83875894860762    4.95350589962771    8.39333646663667
H         7.83165549004980    4.18662644776216    9.15206076898254
C         8.96333703206909    5.74941319231517    8.27053309670550
H         9.80017191630231    5.56544617860206    8.92658204611558
C         9.02467876083628    6.79097468921147    7.35369982052942
C        10.24335648651692    7.68626696614724    7.28720153743018
H        10.23142177261100    8.23265235952605    6.33942186394600
C        10.20003814969584    8.70175305818961    8.43305096133158
H        10.20709868914088    8.18760168646283    9.39106762501386
H         9.29491697319883    9.30396497704870    8.37880048808337
H        11.06189272030978    9.36457783001418    8.38882032172235
C        11.54878813688006    6.88983394417948    7.32700382638126
H        11.52954762306222    6.09404468534423    6.58614047026486
H        11.71230353388305    6.44681437637386    8.30524682367175
H        12.39002599302239    7.54552709677954    7.11078313501857
C         7.90720193192421    6.98881641232976    6.54229879293857
C         7.72113808904175    8.14603318959608    5.58121884194369
H         8.34718076302833    9.01381333640208    5.83932082528425
C         8.06395195036156    7.66535749255433    4.16546178042800
H         7.31724856687853    6.91628866004723    3.84402921522572
H         9.03664156201753    7.17868959397338    4.19097930325518
H         8.11180524817702    8.48129741008736    3.44687908322711
C         5.95928401456327    9.58571315322925    4.71849749615181
H         6.64786584134922   10.43805483973996    4.80375913534303
H         4.94699008942264    9.95005344015919    4.90061648088175
H         6.01254776415992    9.18923852274920    3.70483124150860
C         6.02895613613171    9.08254123025644    7.03278402829955
H         4.96127603786380    9.27572636928588    7.14933807699055
H         6.57421199771079   10.02320751949752    7.19202771513449
H         6.33993262707278    8.36463934681408    7.79037990502053
C         3.63235579219145    4.77294338891605    4.16880149365148
C         2.78680271225672    6.10572168911259    4.10385925189500
H         2.23355615198219    6.18041547216682    5.04880618505363
C         1.87670048370289    6.11016033444257    2.86704451818209
H         1.73424436164404    5.07944372692484    2.54108104068972
H         0.89932039748640    6.54147228886688    3.08601889005690
C         2.64252730432341    6.94743638063238    1.82892204212798
H         2.77850677124054    6.41610703182447    0.88999288019794
H         2.11601297120624    7.88091543962829    1.61771388909131
C         3.98979332709241    7.24164816471254    2.50888219157350
H         4.69556226469810    6.42516348267838    2.31540307394113
H         4.43050740891448    8.18668619599942    2.18058454495764
N         6.29092443734277    8.55020959333167    5.69478597295863
N         3.69361022305129    7.25928515979306    3.94688092749648
H         3.15011158653798    8.10671356163432    4.13705535817559
O         4.76012466607692    4.85123967598955    4.73829015204350
O         3.14991651789341    3.76307069030964    3.69056565740704

