71
CSD_code = MIVKOT | q = 0 | S = 0 | Stoichiometry = C28H39ClNPPd | MND = 4
Pd        6.09257496365419    8.54977697649255    2.22380778884398
C         7.60613833389735    7.33910036224663    1.76661018974649
C         7.62160261379023    5.94689114029961    1.81527509943312
C         6.35685435725288    5.22459038912448    2.23009991822056
H         6.01127076972192    5.66063624828865    3.18113063199414
C         5.26933347582876    5.50908871110581    1.18325796593400
H         5.09652857333780    6.59966753053393    1.10505011936802
H         4.33603852593579    5.02550446075493    1.46520925962100
H         5.57811211846636    5.13573040406733    0.20778173577606
C         6.51599651295757    3.72194207210618    2.43315154818666
H         6.74679295858620    3.22386112077631    1.49387487795688
H         5.58716549898152    3.30465821885767    2.81732027612279
H         7.30685728962276    3.50743469254197    3.14863262980398
C         8.76427765000758    5.28957791169561    1.37772464790135
H         8.81845074007409    4.21173622775088    1.40059409044639
C         9.85249938972870    5.99688793133960    0.90078537992989
H        10.72978699303876    5.44903772959877    0.59223713119009
C         9.81999966885496    7.37937463671642    0.76302757958486
C        10.99685390858966    8.11229528888848    0.15571796165276
H        10.90373050185098    9.17965912733224    0.37675530553387
C        10.99032108835367    7.92962633712922   -1.36472188511833
H        11.07951648803803    6.87583759432874   -1.61833741950701
H        11.82115239701569    8.46700859164369   -1.81767275478648
H        10.06121766263207    8.30302357335463   -1.79146834065837
C        12.33046673887290    7.65008343722225    0.74617280976451
H        12.29447849602853    7.68033343911455    1.83301148940104
H        13.13215190628768    8.30352857310960    0.40746650985255
H        12.57097126720449    6.63666056988600    0.43706693048766
C         8.65777035560279    8.03572180123619    1.16781233272427
C         8.36836312259550    9.50664489682798    0.93291918798155
H         8.97551395402535    9.92049878495885    0.11146795325027
C         8.65553902269544   10.29321749070933    2.22029327929184
H         8.67694103760572   11.36712432680226    2.04623655694558
H         9.62652520915458    9.98976621605107    2.60821434830822
H         7.89078810382997   10.05884532967637    2.98263618824962
C         6.49365281660425   10.98678925080621    0.43939608586072
H         7.14360423417825   11.55363262884299   -0.24263667006751
H         6.48504599037843   11.46138915322077    1.42101466458684
H         5.47267420854258   11.01263969850287    0.05729920602869
C         6.72697490481715    8.95056234199569   -0.75371043412569
H         5.65907322421059    8.91984876534894   -0.97739124664014
H         7.11394106179837    7.93113797216884   -0.73722658399175
H         7.23663995414594    9.50727708449294   -1.55396490015989
C         4.18508379491952    6.96551462836850    4.65234596201644
C         3.22125674380934    6.90521555912731    3.65380104497601
H         3.40889308986796    7.39994659150649    2.70574227224946
C         2.02927121060040    6.24389767298895    3.88935495061978
H         1.27507158411580    6.20011143030593    3.11734870681535
C         1.80318047674109    5.63995519767139    5.11530832330832
H         0.87360436981110    5.12099127118438    5.29871366987556
C         2.76585487710897    5.70203379108078    6.11106530017802
H         2.58441176330250    5.23299475427012    7.06739579026478
C         3.95776284298737    6.36530820366952    5.88505099675681
H         4.71410732051178    6.42138140171526    6.65556340536176
C         5.72268195913896    9.23779016258025    5.45627352437453
H         5.05750343582495   10.07882459692423    5.35062949175008
C         6.68093900428128    9.09727628799434    6.39116266016288
C         6.98047783751733   10.08988417730808    7.46388741746296
H         6.32047588521214   10.94922608214481    7.38149643010286
H         8.01257664147165   10.43126255093085    7.38940591530080
H         6.84849027191581    9.63929523549401    8.44725197107689
C         8.54476768464817    7.52353351592552    7.22007350965575
H         8.97769286760695    6.55498203979351    6.98350789709451
H         8.18007642280836    7.50512514013810    8.24671266596355
H         9.32603956631740    8.28033492483300    7.15831499811654
C         7.43474781085213    7.84629952485638    6.27732320672717
C         7.01950272698977    7.05215050108825    5.27253166774650
H         7.46403363258327    6.10424620061053    5.02004980670779
Cl        4.28296992834890   10.00940406326810    2.56824138348786
N         6.93391777027898    9.59646162232708    0.54122230142514
P         5.73192039161020    7.85680383403033    4.30640328550659

