74
CSD_code = MIVKIN | q = 0 | S = 0 | Stoichiometry = C26H40IN6Ta | MND = 6
Ta        3.77466565679057    1.08028250243829    2.25098014245107
I         3.34022944610725    1.77934767728226   -0.50470825625592
N         0.73637581516926    0.31031708282002    2.07961627802774
C         1.48333779353721    1.37446635600311    2.44729802073507
N         0.61393697375866    2.32173834894670    2.82617351955681
C        -0.67073608659738    1.86618188531320    2.69194599204923
H        -1.52366950297575    2.46638705775505    2.93543836583715
C        -0.59342400351370    0.59455436939450    2.22576126365670
H        -1.37352430523459   -0.09962959694126    1.99188745543837
C         1.36454408405143   -0.86393098000683    1.61236181797918
C         0.69971533173268   -2.01673292232520    1.21740588081722
H        -0.37713744800545   -2.09466369938475    1.25252176077426
C         1.45158804556074   -3.08935669835297    0.76037591366796
H         0.94910297413990   -3.99137749353155    0.44513182020328
C         2.83565996558977   -3.02307472333010    0.69239905568119
H         3.39483620375118   -3.86972811980961    0.32170010807238
C         3.46067622262342   -1.85311544949308    1.10131688627262
C         2.74968685304420   -0.75672221828091    1.57340014330643
N         4.85501678289523   -1.63364107086071    1.08797263609181
C         5.35296329222305   -0.43749122416828    1.47188481827401
N         6.68537134048596   -0.54252895768353    1.36216882491526
C         7.02753030844227   -1.79365513097070    0.92312303741515
H         8.04400386540556   -2.09115987401804    0.76352042043482
C         5.87159607926099   -2.48117700402136    0.74489486122066
H         5.71366978531023   -3.48306114313720    0.40369424007024
C         1.00086817447296    3.65150716005024    3.22455242525148
H         1.94179617576349    3.57584687763133    3.77920504548026
H         0.22910891962497    4.06197604747610    3.88243022280316
C         1.19689152321225    4.55287177773789    2.00238032506222
H         1.94315352429296    4.09990839028871    1.34757793241795
H         0.26038910247827    4.62074146496489    1.44361409250021
C         1.66105486608616    5.95026878720828    2.39960638407381
H         0.90997232667117    6.42061913045503    3.03965547515522
C         1.90606575410283    6.81928264534144    1.17246133951785
H         2.25474916374386    7.80690727917521    1.46491809077715
H         0.99030736078678    6.93416051699531    0.59728577670008
H         2.65512775100065    6.36377861478783    0.52933935184166
C         7.60852827305073    0.49848359978868    1.73737703948214
H         7.21742743376761    1.45585555140424    1.37992845506216
H         8.56698331160178    0.29943584461558    1.25289689214339
C         7.76089854488302    0.55480546203944    3.26052239671984
H         8.15718506982513   -0.39857519769268    3.62039346240205
H         6.76302552554601    0.69584582397271    3.68547950448799
C         8.67361884299544    1.69121423819695    3.71737181023864
H         8.31717864600063    2.63065053148684    3.29067134299395
H         8.60162576901099    1.77364159087542    4.80377294285466
C        10.13494285374168    1.48246638094729    3.33525402463420
H        10.75119524010117    2.26871322183211    3.76458970966229
H        10.26858424668579    1.50472337400560    2.25674650023645
H        10.49422241001893    0.52621911170848    3.70975008046279
N         3.84957832388083    0.37361076131912    3.90178028867078
N         4.73447817172515    2.87005902545124    2.62177281016309
H         2.58407097485475    5.86991163060163    2.97857071595183
C         4.99320253890813    3.28648677430877    3.97985157008159
H         4.63779595246798    2.52649177869668    4.66898309928825
H         4.48668271644596    4.23953235598416    4.20607652639718
H         6.06846311497796    3.45029364237246    4.15230142191200
C         5.25148564826067    3.88987028560616    1.74085453185767
H         4.73945566896053    4.85289719786318    1.89424900299563
H         5.13417723838295    3.61031310197339    0.69715717979161
H         6.32402297984110    4.06750935973188    1.92552017660376
C         3.74851465180371   -0.43086187994571    5.03548055286796
C         2.25614041752913   -0.68743230470874    5.34607301204016
H         1.74924252020425    0.26106679338912    5.50911862858633
H         2.14969118432651   -1.30802683507472    6.23239923622750
H         1.79455219410106   -1.18859348175207    4.49877879877458
C         4.43657809505683   -1.78797912598467    4.76254950181308
H         4.34916687219099   -2.44222737571390    5.62647589659209
H         5.48876090004769   -1.62712299474861    4.54014502485058
H         3.96618930901777   -2.26169629308957    3.90444404594312
C         4.41035347361005    0.22345279860853    6.26859951315166
H         3.90556964788418    1.15558661293674    6.51132878826508
H         5.45566194210526    0.43744618868890    6.05846220721677
H         4.35124918048295   -0.44136521547058    7.12718184029012

