56
CSD_code = MIVKIM | q = 1 | S = 0 | Stoichiometry = C22H28ClN4Ru(1+) | MND = 9
Ru        9.12758622392914    6.47192103630784    3.11105106459352
Cl        9.83187880142169    7.84208682919709    1.31463356871272
N         9.60969161640351    4.83667374367135    2.04271410851966
C        10.86274410460381    4.43142697522958    1.80149864081405
C        11.11330611521764    3.12098847445698    1.36428915761762
H        12.13111056598470    2.80248727290192    1.20839468848634
C        10.05317587473568    2.27259190872184    1.13296885107421
H        10.22888912005697    1.26055449740357    0.80568701606979
C         8.75230581708621    2.74250121561701    1.28076281960686
H         7.91093521898127    2.11501132290725    1.04401802099048
C         8.56297042395233    4.04137054538852    1.72556641235364
C         7.28835784300412    4.75779135048741    1.76255888708233
C         6.06001158575554    4.25457467617788    1.36472789214225
H         5.94808713439668    3.21498250753737    1.11140244993879
C         4.97753801801209    5.12560448809565    1.28746672275445
H         4.00641354655510    4.75685911447577    0.99892407839735
C         5.16368021303779    6.46673315539456    1.53807377783754
H         4.35739373937623    7.17452232119666    1.43501646950745
C         6.43444500994387    6.92635002955666    1.92367427125796
N         7.43943425263701    6.05809573592651    2.10192973388599
N        11.85774811540770    5.32257902000389    2.05199651938160
N         6.69262564242440    8.23073509326532    2.18377569279851
C         8.20622919060911    5.94907241817691    5.10335474702774
C         9.50619289203180    5.38747635894410    5.03401667281342
C        10.65255072827029    6.24786941326821    4.94373751104703
C        10.46286886118734    7.60663590679523    4.63179519038877
C         9.13791832647984    8.18332359052696    4.65629799161543
C         8.03493597387594    7.37229572243122    4.99232746156527
C         7.00808756487111    5.11452142433352    5.46538126103258
H         6.21997411403661    5.20457569528769    4.71763588638978
H         6.60221059198189    5.45781507644972    6.41680857320701
H         7.25432415868777    4.06430222115981    5.57110840798651
C         9.71885302367092    3.90564610010375    5.19620215505198
H         9.71420973640796    3.63469270676111    6.25278728476876
H        10.66881110863708    3.59917059573419    4.76673315547234
H         8.93734290037171    3.33818005451303    4.69475683125866
C        12.01670529275787    5.70261886757317    5.27139343398873
H        12.51490699877598    5.29108830230040    4.39427762270367
H        11.93097017824887    4.91769605856679    6.01837211712703
H        12.64625033345594    6.48305987107741    5.68972950522408
C        11.63242786427493    8.51439743723143    4.37588564970598
H        11.75018129856549    9.22423421583949    5.19446759747547
H        11.47005553912085    9.08236433846100    3.46057044948763
H        12.55723659591634    7.96044056858205    4.25553436446860
C         9.03020931890376    9.67170481809526    4.46946643932085
H         8.00402153591877   10.00954382362058    4.38032096183567
H         9.55818816431481    9.97933568393171    3.56841273880897
H         9.48704273193843   10.18453025812182    5.31596447229669
C         6.68132832367999    7.93401119142009    5.32243919657192
H         6.51125175663763    7.81666135934696    6.39375802367811
H         5.88837765809960    7.40421322006687    4.80015173812509
H         6.59234923495778    8.98732277514819    5.08696947558664
H        12.76205154009643    5.11880864271028    1.65619935196013
H        11.57621492839919    6.30105294828662    2.01208429511571
H         6.01814095495396    8.90845216570205    1.86765884962169
H         7.66955159689012    8.50524485513199    2.10516974358980

