58
CSD_code = MIVKUY | q = 1 | S = 0 | Stoichiometry = C24H28ClN4Ru(1+) | MND = 9
Ru       10.76704822707389   12.82697783108982    1.94883056563267
Cl        9.01624105163154   11.39075665723534    2.60825137533373
C        10.06423628109395   14.24632653154328    4.55468301253059
N        10.01998898350360   14.23006718712091    3.22476001137206
N         9.48054379241236   13.87027682671403    0.74582361764028
C         9.82287255313959   15.45247307963093    5.26240829416887
H         9.92353200193692   15.44364661154935    6.33635753417981
N        10.39583597630566   13.09120623374399    5.18074320070749
H        10.22782688929749   12.24847787646150    4.63599475061392
H        10.21352599359951   13.02206665838001    6.16886748096253
C         9.45834737594879   16.59025248155736    4.59826555350685
H         9.27714375008678   17.50793122024907    5.13559727853275
C         9.26667634461141   16.54548586050263    3.19909109036459
N         9.09630532760560   12.23255846113052   -0.81120243977910
H         9.24768568911296   11.57648138704283   -0.05071583439381
H         8.54548947164421   11.90415180284970   -1.58696731011104
C         9.56872891400330   15.32609478924885    2.57330043130735
C         9.27016256904314   15.12716845132613    1.20228878845297
C         8.66872579280174   16.14832651111853    0.45072731556059
C         8.26905764209106   15.80362821360715   -0.86033215760692
H         7.82980288410348   16.55178414415803   -1.50144311923650
C         8.39848293612116   14.51037147496028   -1.28257464050884
H         8.05354259123066   14.20651169871857   -2.25828351656478
C         8.97996967120477   13.52763445485612   -0.43901332551992
C         8.75200549742532   17.59850785167899    2.39525821272870
H         8.55671071457130   18.54993645330851    2.86496899585793
C         8.46540945169865   17.40782669660975    1.07735234905652
H         8.03982720706055   18.20641068354746    0.48985183178156
C        12.18587151977771   11.82868433156723    0.41074065136237
C        12.03100034384480   11.20942270061987   -0.95388753613006
H        13.00494142804437   10.85540160828583   -1.29650723485064
H        11.65409850408957   11.92323299963904   -1.67832110169628
H        11.34794850811183   10.36607914517365   -0.94306608912711
C        12.16003123791818   11.03273375028756    1.58037247530208
C        11.89286174858256    9.55479130833348    1.53551343733015
H        11.90868552505812    9.16227136614856    0.52556433027054
H        10.91574038275240    9.33995942884571    1.97250667645862
H        12.64577088102689    9.02132400196290    2.11155263429369
C        12.52059451115789   11.61116850502182    2.84935160401861
C        12.58479961485028   10.71962138147686    4.06062370733293
H        13.50751457848769   10.13708574609970    4.05127052956996
H        11.74759712406185   10.02551233158573    4.06618697664691
H        12.55025582856347   11.29441056714452    4.98071997239396
C        12.93062516426689   12.95730294252873    2.92298119856199
C        13.59454843761132   13.49136083760675    4.16207900976025
H        14.32114681030205   14.25545105040652    3.89742937255212
H        14.12535220466849   12.69587704495593    4.67831991379248
H        12.87623597675993   13.92704052653256    4.85607310569850
C        12.77941919633203   13.80453722751124    1.77796413815916
C        13.07530088498906   15.27657663485529    1.90679565739480
H        14.11652088071512   15.48541799808956    1.65600720657631
H        12.89124825256415   15.62122083350132    2.92126474916888
H        12.43815781010149   15.86263592228103    1.24734113302430
C        12.47409188966075   13.23070557459947    0.51538338901636
C        12.59209998519088   14.03791103866810   -0.74918447661140
H        12.96488754287376   15.03828583418269   -0.56014925233260
H        11.63378520396120   14.12458242488764   -1.26220988984595
H        13.29184244331230   13.54545680722160   -1.42350563469743

