72
CSD_code = MIVLAG | q = 0 | S = 0 | Stoichiometry = C24H38IN8Ta | MND = 6
Ta        2.01935368531698    2.17627216395844    2.78132372360772
I        -0.75716306789302    2.77559364238298    3.13349569360484
N         3.81243828007751    2.13101332687379    2.65852487097571
N         2.22097815610335    2.64421812452487    5.87332317843005
N         2.01706597200860    0.53461252130751    5.87530000063840
N         2.28896291323404    2.28369907646214    7.16330822145915
N         2.13313020105540    5.20439833171337    2.01474129906773
N         1.86844218882494    4.39358722453483    0.07457082205540
N         2.13596760392635    6.25993070768317    1.18644761269712
N         1.59667368111316    0.41467687919902    1.79097066330584
C         5.18315542239213    2.36950486003102    2.76499877337407
C         5.51242449921036    3.75704961608959    2.16982009158889
H         5.22225868987715    3.78654559878644    1.12259086982242
H         4.95832028222550    4.52153903769748    2.70895756756065
H         6.57673461995733    3.96355557348818    2.24964679681155
C         6.01269110534748    1.29738880645703    2.02431853436225
H         5.78590536962063    0.31088917468073    2.42185736051582
H         5.77247814326899    1.30406184032552    0.96351441419417
H         7.07584560323086    1.49113388281091    2.14497595218550
C         5.58261644481222    2.36721247224821    4.25766514854630
H         5.01822389502680    3.13464781410513    4.78188870323801
H         5.35085783762441    1.40041328978111    4.69697447479466
H         6.64578116561661    2.56458315595873    4.36945303151550
C         2.21510805439454    4.00473014765907    3.99858693804956
C         2.29992287438956    3.95976819156597    5.38361309177403
C         2.05885405835431    1.60170151005619    5.04718686760910
C         1.90193315280870   -0.83415835008844    5.44090164227405
H         1.64286440368633   -1.45099038109212    6.30582164070664
H         1.09470995029302   -0.89134593807111    4.70470012749978
C         3.20938541028015   -1.31226083064819    4.80414988391508
H         3.03777786822058   -2.29463289959383    4.36091823541882
H         3.47515661186715   -0.61588773556825    4.00378052123608
C         4.35087144267718   -1.40422114909246    5.81473113081189
H         4.51408066671620   -0.42687471031835    6.27628831869112
H         4.07994433171366   -2.10565118869411    6.60845268280378
C         5.64337496122363   -1.86506961495091    5.15311226776041
H         5.51216220553272   -2.84509685566665    4.69995334308775
H         5.94261880756719   -1.16557333322191    4.37617087251957
H         6.44546072786801   -1.92879653033904    5.88417847800018
C         2.16511150261390    0.99387306496539    7.14817233231397
H         2.16924900077098    0.37437880414913    8.02140349999423
C         2.43447536123821    5.09543940572451    6.16878803350115
H         2.49393423546737    5.01860102492301    7.24354261548096
C         2.48105929737436    6.32819404152135    5.53131504412083
H         2.58154581029767    7.22539513598974    6.12268096396903
C         2.39035702612370    6.43151053060366    4.14957421607211
H         2.41507647944424    7.39168868661248    3.65762192365225
C         2.25681163735523    5.26319719709592    3.41336866584412
C         1.97759109968952    4.03822423304801    1.37374862734151
C         1.97526134595661    5.74939689628377    0.00682282412012
H         1.92344844312519    6.31845874425793   -0.89855521717686
C         1.72674001156299    3.46367832466022   -1.01634812739556
H         0.96475822772911    2.72806991585396   -0.73984950723370
H         1.38928312343161    4.01339546506740   -1.89922002449715
C         3.05177482613614    2.74903198092488   -1.29445002585066
H         3.39659119844283    2.29262323795713   -0.36213483903542
H         2.87042495300609    1.95242167741454   -2.01780345384644
C         4.12074258632019    3.69509639937924   -1.83805097752843
H         3.77046490540375    4.14207338587307   -2.77228187807454
H         4.29225048837092    4.50631112160160   -1.12561749593045
C         5.43459475817713    2.96590023522491   -2.08876537560337
H         5.81331884599979    2.53582078638950   -1.16449533071979
H         5.29424148959910    2.16246548926700   -2.80830799448765
H         6.18306800373825    3.65079341539653   -2.47928355806530
C         0.36934482549539   -0.33389271689569    1.65012966979057
H         0.07135497627664   -0.41760877643645    0.59361618427650
H         0.48691122734434   -1.36111819999014    2.03179323278436
H        -0.44803436490622    0.13448765553111    2.19157618323595
C         2.63529335129668   -0.31318911829687    1.09774692416787
H         2.72290129562297   -1.34244699251526    1.47926901299615
H         2.41395157402579   -0.38718144014167    0.02174027664289
H         3.58653423790976    0.19344293551870    1.22823972863014

