75
CSD_code = MIVMUZ | q = 0 | S = 0 | Stoichiometry = C27H45NSiTi | MND = 10
C         1.22482052570633    1.93889321714938   14.10618710416458
C         2.52706081344666    1.37393568899850   14.29159695910489
C         2.75789288292174    0.43404508794619   13.25710380696365
C         1.63216805577705    0.43004460963771   12.40434933244739
C         0.69690826545685    1.37018504348720   12.90277321328541
C        -0.72489576434411    1.52477057601791   12.44729479656493
H        -1.03397034285820    2.56673022800789   12.47600405356975
H        -1.38701603241154    0.96212335580758   13.11081331239016
H        -0.86563186078990    1.14261179731929   11.43815378440605
C         4.23784185360655    2.68341416006872   11.26134780612062
C         4.64772736337942    2.89851888380537   12.45433456680592
C         5.99875254540963    3.17926319623260   13.03464391142523
C         6.70826460754231    1.86203537157039   13.37810292875311
H         7.72258235070888    2.06152728388652   13.72052925683903
H         6.75963069945388    1.21746958700208   12.50244448637209
H         6.17863108272868    1.33291499254460   14.16571180202604
C         1.91281046720536    2.85192304886231   10.33679395329242
C         3.17365067604487    2.66458991391444   10.44275807530627
C         1.35036095510928    4.17908055747612   16.41903226797437
H         0.78508036693125    5.03612964914320   16.77117512137938
H         2.40194347624654    4.43509981042498   16.49346494239153
H         1.15505660260824    3.36174611529178   17.10536238787029
C        -1.06242157757818    4.13723904419160   14.63438433608464
H        -1.25455829363320    4.99645354385954   15.26921241272543
H        -1.64220021836285    3.30943071514152   15.02916944706513
H        -1.44802910069638    4.37294520376633   13.64838214334634
C         1.99810208249951    5.72948733101511   12.98659214900826
C         2.93264730151431    5.82372928642270   11.76864767735126
H         2.48189275444162    5.30840471536648   10.91657289258484
H         3.88916649942581    5.34790688937721   12.00008427502625
H         3.10964999218173    6.86477748708320   11.50089915236368
C         1.01093288702099    3.09607707125236    9.16677502810776
C        -0.16590974143951    3.98699356916027    9.57918554316037
H         0.18586591768871    4.98945601718838    9.81766335496241
H        -0.66717687414425    3.57661153335637   10.45277041845286
H        -0.88537747971309    4.06350904558628    8.76533841241122
C         3.34122671341802    1.51042509942496   15.54497732019012
H         3.32036147090093    2.53123997446348   15.91621457725478
H         4.37585992944411    1.21224456425847   15.38659738862819
H         2.92578595993126    0.86359195822769   16.32298444049602
C         3.90804096526729   -0.52020116922295   13.11471914535187
H         4.57701676012654   -0.46721389762801   13.96995595600090
H         4.48437566626935   -0.31382076139630   12.20930019753876
H         3.53676913031439   -1.54498543096882   13.04302392587440
C         1.46240361404015   -0.53580123107213   11.26776991620277
H         0.46196444551783   -0.48390620401376   10.84586807845890
H         1.62411649339155   -1.55722723232362   11.61974084929806
H         2.18594014781515   -0.34255208733862   10.47204127947453
C         6.84085021579335    3.93413802640080   11.99214810550203
H         7.82037899113265    4.17796465757590   12.40054766503810
H         6.34891376175678    4.86037145672713   11.69762779176549
H         6.97714164838587    3.32335403375150   11.10158294869133
C         5.86729512297917    4.03992687680155   14.29571289165832
H         6.83451650406675    4.14425434858504   14.78511333535853
H         5.16646988302431    3.58969969431746   14.99465926563187
H         5.50794835955062    5.03445733559041   14.03596270715489
C         2.64586981841591    6.48033292962943   14.16311782553386
H         1.95217236324520    6.53371819467998   14.99668335212511
H         2.91942097040659    7.49118450264059   13.86852946299823
H         3.53672445934741    5.94933786618781   14.48929696076502
C         0.66634996467013    6.41970328533247   12.64247245453567
H         0.04173731007371    6.48323584069625   13.52840628431818
H         0.13900777658929    5.83967543260596   11.88917491758563
H         0.84133293331383    7.42428367504941   12.26345605744956
C         1.81336670383900    3.79827567045774    8.05840752167326
H         2.23920975338775    4.73166554076089    8.42455336212574
H         1.17095805101180    4.02135308229067    7.20795201080898
H         2.62910928264692    3.16165535900135    7.72082354054852
C         0.47972622537237    1.76383726252967    8.62035221291484
H         1.30339586948117    1.09500683105726    8.37762648118819
H        -0.10293175575036    1.93632421254113    7.71664353399939
H        -0.15888134814587    1.27613255123238    9.35173565766691
N         1.78307960925621    4.33744191563594   13.31847157296803
Si        0.82142534877074    3.72458322478722   14.62105956812117
Ti        2.45179714185982    2.75591898335923   12.47593432499900

