203
CSD_code = MIVMOV | q = 0 | S = 0 | Stoichiometry = C104H92B2Cl2P2Pt | MND = 4
Pt        2.31053200549697    5.06400433504619   20.16294850057813
P         2.96215764409867    6.57038506774641   18.50431837139120
B         1.95505616331137    2.26146497023226   15.05351492794471
Cl        4.30135770879973    3.90070352173561   19.75241099811794
C         1.52219370027049    3.61357273754663   14.38957333034471
C         2.44173468041086    4.42583919292705   13.71449054267610
H         3.48439472924889    4.14294101286470   13.70786257067360
C         2.05065460284238    5.55726202231486   13.02996286457798
H         2.78370236178334    6.15179656774324   12.50216012917327
C         0.71432533460735    5.94549757978494   13.01069143324559
C        -0.21342920824266    5.16771956791130   13.70069038966771
H        -1.25688869571978    5.45068791960085   13.68258453192111
C         0.18442160778110    4.02798225305611   14.36786486989019
H        -0.55950438434723    3.42076307613467   14.86524442551389
C         0.24551274363257    7.05284881351503   12.15952001636935
C         0.50206265387617    6.95985741608526   10.81008018755595
H         1.12897345834686    6.15692646848008   10.44883652829307
C        -0.07896181125813    7.84232038088076    9.89317423247270
H         0.14537853055210    7.73983920243076    8.84159728571539
C        -0.96669288900183    8.78505236407880   10.32737223097728
H        -1.47659349411710    9.42924261443212    9.62567656410112
C        -1.23751030276689    8.93753039140727   11.70310959684412
C        -2.16580603537005    9.89952669058786   12.15265158949217
H        -2.67580556679256   10.50737002867701   11.41928469186498
C        -2.41228804332724   10.05947514675760   13.48650849957474
H        -3.13827010422722   10.78181743420378   13.82949196982465
C        -1.67710535114982    9.32528492798816   14.42316531810351
H        -1.80814438613250    9.52766628989861   15.47640382353316
C        -0.74335876430673    8.39240320748019   14.03118051137045
C        -0.56683752705608    8.11270375135340   12.64789389585007
C         0.13758086529699    7.83257598958175   15.06900783737526
C         1.51953953898208    7.97057608515820   14.94527526095839
H         1.92840481230024    8.42720318981529   14.05531065504855
C         2.36326734505442    7.56050152371007   15.95515625284732
H         3.43000134532059    7.68181723243321   15.83464389074682
C         1.84724822136881    6.99882239320341   17.12074124525344
C         0.46969269906491    6.87239918068029   17.25403555572108
H         0.05609822849166    6.46986857139359   18.16588974315529
C        -0.37372725425498    7.28477627865784   16.24012963233595
H        -1.44230332170067    7.17472773587016   16.35538440167512
C         3.33261613101438    8.26918449295079   19.06868879664917
C         4.22198422871299    9.08697010986523   18.37649486198767
H         4.76904840108239    8.70361556747595   17.52679515822255
C         4.41983908728000   10.39328969419911   18.78230634884879
H         5.11501372598598   11.02077110524406   18.24279025027994
C         3.73025790940951   10.89859586756892   19.87284450724843
H         3.88989011752405   11.91938036049287   20.18653124128957
C         2.84005230813966   10.09193640288374   20.55862146823828
H         2.30349075451880   10.48246407951577   21.40993768036270
C         2.63927873946927    8.78303533987389   20.15817103381128
H         1.93753328640799    8.15458227952327   20.68548897822024
C         4.48824856401658    6.05722910842627   17.65653727475614
C         4.42725309271773    5.26537660958213   16.51462719198699
H         3.46845298906584    5.03226320041416   16.07191223839754
C         5.58897007233199    4.77221648713014   15.94737908933131
H         5.53429913822265    4.14450647369784   15.06983787073939
C         6.81743485063010    5.05940111097006   16.51737581639348
H         7.72202968863852    4.66706181311772   16.07689392594134
C         6.88374025529401    5.83601139191660   17.66310874073588
H         7.83961968479306    6.04791333639398   18.11962167172373
C         5.72538301014364    6.32380112723896   18.23673984175359
H         5.77349513439647    6.90365837700566   19.14862264198142
C         3.33460047705942    1.65767799125095   14.60435725992408
C         3.62989562066090    1.45683006558916   13.24572285650853
C         4.89276940622615    1.04236254210723   12.84929566620405
H         5.08922855618849    0.89267019560484   11.79583335771479
C         5.90481671161567    0.81828845958060   13.76949665969026
C         5.60677938076318    0.98047712160384   15.11329096513098
H         6.37305727295206    0.79258746371801   15.85306820325930
C         4.34778058731753    1.37866318360331   15.53809218786778
C         2.59177788779976    1.62351169705309   12.16944854048380
H         2.87996554205891    2.42070209091502   11.48425720689231
H         1.61668506357304    1.86152887750555   12.58222105247829
H         2.51103296449878    0.70348278314450   11.59036344713632
C         7.26615203532907    0.37373311024710   13.32711974722000
H         8.02847474511036    0.70242394219571   14.03016813407739
H         7.50102115009430    0.76617117376115   12.33983739843095
H         7.30446616044999   -0.71516442718277   13.27400177445639
C         4.11215847146503    1.53210666447157   17.00895434517922
H         4.77652362637745    0.88101753355234   17.57368132876073
H         3.08304782816782    1.29481412821941   17.26050304431509
H         4.31694599335507    2.55511304363047   17.32493384996454
C         0.96929636206464    1.56376086860947   16.05937453879990
C         0.49707986909938    2.23728699812095   17.19863690108249
C        -0.45074599393008    1.65415313363120   18.02297550689018
H        -0.79813263075607    2.19618742050429   18.89189550770741
C        -0.96238473887814    0.39332553960028   17.76008584526540
C        -0.47618721483127   -0.28697349889407   16.65462326469281
H        -0.85013137233420   -1.27927364768969   16.44027843579522
C         0.47447373799843    0.27287199578647   15.81397377952509
C         0.93251401261603   -0.51207589643286   14.61936692646477
H         0.53166939830255   -0.07869019374495   13.70360558874165
H         0.59232960206330   -1.54327937847507   14.68421271156305
H         2.01712549938076   -0.50198498642809   14.54441779726625
C        -2.02246624024903   -0.20771880111821   18.63170527468550
H        -3.01016022599511    0.02928796053788   18.23324907208314
H        -1.96056408570460    0.18661594254019   19.64347831173567
H        -1.92741126042539   -1.29077238538662   18.66834327831971
C         1.02929682014937    3.59248623867747   17.55411014585124
H         0.75185011152556    3.84794849032264   18.58280013573834
H         0.61580338039946    4.35162840200580   16.89249232408248
H         2.11375189245635    3.61998173655554   17.45515357465997
P         1.65871527358443    3.55812246775121   21.82098552677251
B         2.66511409448723    7.86745869958150   25.27189190499903
Cl        0.31998617218817    6.22789334500787   20.57368989155376
C         3.09800253605297    6.51538152490848   25.93587656630919
C         2.17844680898366    5.70304552308363   26.61086070457994
H         1.13576229267354    5.98585485316556   26.61734530522240
C         2.56953906867793    4.57165781797372   27.29542763465896
H         1.83648444596944    3.97705046816394   27.82313759625611
C         3.90589798755035    4.18351846996207   27.31484803557028
C         4.83366031950603    4.96133992354738   26.62491632438437
H         5.87713620429466    4.67843884384353   26.64310249269952
C         4.43579402281686    6.10104743901555   25.95769642624076
H         5.17973777267950    6.70832032236642   25.46040780141290
C         4.37469958739907    3.07624490510155   28.16612727853937
C         4.11805554346066    3.16937196200103   29.51554236533488
H         3.49107992846576    3.97230966128037   29.87665500997828
C         4.69907562229599    2.28704685725492   30.43257816900480
H         4.47470132523566    2.38967734825093   31.48413428752383
C         5.58684016290662    1.34426715306503   29.99854682629725
H         6.09670820945074    0.70019685475132   30.70037568636740
C         5.85772298882927    1.19162071954075   28.62284227520490
C         6.78602091473378    0.22956258487350   28.17343714191616
H         7.29593774255552   -0.37827497353225   28.90686794958069
C         7.03261983512763    0.06952206959578   26.83961312686613
H         7.75860082442886   -0.65287154303625   26.49673547140138
C         6.29755434601518    0.80367797553958   25.90283214195121
H         6.42869403523313    0.60123247401359   24.84962028298977
C         5.36377399487959    1.73658336296513   26.29467461200255
C         5.18711911174681    2.01636485472182   27.67793324774971
C         4.48291648853006    2.29636168563696   25.25674731954178
C         3.10095271045390    2.15843572029462   25.38044302269234
H         2.69205123276375    1.70193136619647   26.27045762532215
C         2.25727645910655    2.56844778654993   24.37048105160915
H         1.19053487486991    2.44723517912065   24.49103132397605
C         2.77339152561499    3.12989974094874   23.20482388752434
C         4.15096392528483    3.25632185232979   23.07158976701581
H         4.56452026217293    3.65879598436139   22.15967216332505
C         4.99431866074204    2.84408395602247   24.08561511150277
H         6.06290829433786    2.95413901578369   23.97051202726903
C         1.28840393885822    1.85922642919587   21.25676470627361
C         0.39914879910903    1.04138777472406   21.94907426760756
H        -0.14776836533131    1.42473096063286   22.79887590544217
C         0.20117830501851   -0.26487342105000   21.54320061031235
H        -0.49392520963776   -0.89241350407178   22.08273120468459
C         0.89059412440659   -0.77013752837617   20.45251532722472
H         0.73090599336063   -1.79091616000988   20.13884302502496
C         1.78068860759401    0.03653875787963   19.76665842697599
H         2.31715487616558   -0.35393707177295   18.91525661210514
C         1.98151966598294    1.34543136668573   20.16714109885151
H         2.68313229961128    1.97387579095811   19.63966370306534
C         0.13253631795455    4.07127412525482   22.66856083080870
C         0.19333264783433    4.86343600855661   23.81027296188152
H         1.15205824408075    5.09691165997513   24.25295918290131
C        -0.96852781131321    5.35636551621623   24.37742556537823
H        -0.91403020542936    5.98431333780765   25.25480807615947
C        -2.19691796178596    5.06860187000270   23.80755308604524
H        -3.10163671642266    5.46069835332086   24.24799441745074
C        -2.26300749318198    4.29173883986061   22.66198015982185
H        -3.21882821788834    4.07944234330498   22.20552939400069
C        -1.10451414666577    3.80420978999892   22.08842047111011
H        -1.15238674148008    3.22414971548938   21.17665532706333
C         1.28549625252564    8.47120238173844   25.72089141366904
C         0.99001717273803    8.67197646704960   27.07950549445008
C        -0.27288060325631    9.08650268439385   27.47578495715684
H        -0.46946541956511    9.23615368504216   28.52922934174273
C        -1.28479090850118    9.31071702958043   26.55546542078481
C        -0.98659020397246    9.14856212457217   25.21170625108619
H        -1.75275533814506    9.33654164084864   24.47183658559039
C         0.27244546198825    8.75032339143691   24.78704950274192
C         2.02795079311842    8.50521287132594   28.15594680191335
H         1.73954891377729    7.70808977651089   28.84112618258332
H         3.00308849396844    8.26706636401677   27.74335658957670
H         2.10870130965920    9.42525767149716   28.73500657803491
C        -2.64612265660373    9.75542325601907   26.99769518647743
H        -3.40836558266295    9.42717690634695   26.29435433979182
H        -2.88131106072627    9.36269025757947   27.98478514306112
H        -2.68417892549110   10.84431026326141   27.05120579801251
C         0.50821404231637    8.59701159879882   23.31618484881999
H        -0.15586385200686    9.24840398952098   22.75148978033871
H         1.53741198091790    8.83402744248759   23.06480506556038
H         0.30314147990956    7.57413608008810   23.00000383419871
C         3.65092955855857    8.56518291713486   24.26609865694467
C         4.12329277767026    7.89164400574922   23.12689860669826
C         5.07116075112083    8.47482791284776   22.30264404184562
H         5.41862702557839    7.93283793174501   21.43373060168440
C         5.58272718033152    9.73567473462964   22.56558212357471
C         5.09640413610793   10.41597586960784   23.67098519351349
H         5.47028930392509   11.40828717867961   23.88537297188912
C         4.14566507531926    9.85610083366747   24.51153043726681
C         3.68743490063123   10.64103797497638   25.70607406368560
H         4.08812828675438   10.20765096642036   26.62190075056091
H         4.02761009342904   11.67224827724115   25.64129501777109
H         2.60281151033800   10.63093342690223   25.78084594249513
C         6.64289421353855   10.33669814791606   21.69404569571727
H         7.63053966146695   10.09976585242756   22.09265899081625
H         6.58113924816386    9.94225373523549   20.68230615209375
H         6.54780505540135   11.41974270585930   21.65728148069445
C         3.59117897546628    6.53640597298201   22.77137192607976
H         3.86911008458513    6.28075176134137   21.74286542200336
H         4.00429027382694    5.77735045777793   23.43334797183036
H         2.50666256621964    6.50899319934673   22.86978321618761

