99
CSD_code = MIVPUE | q = 0 | S = 0 | Stoichiometry = C38H52N8Ti | MND = 6
Ti        9.83665475059077    5.25264114755867    4.72234605519572
N         7.94746407605653    5.85940388323077    4.25293124822706
N         9.66793747342373    6.90146390864920    3.36652171108121
N         9.46053183488092    4.00274400024777    6.05517648676165
N         5.99433091921257    5.24616074778949    1.98683281832436
C         6.55537969096040    5.51588315206407    4.38881864962833
H         5.91352027353108    6.40582348604395    4.38577874492893
H         6.42638427732211    4.99709861872979    5.34550111224409
C         6.11772302655808    4.56112840398908    3.26251660369575
H         6.89738679130565    3.79774220204203    3.16977087651244
H         5.17191026003787    4.06462358710604    3.54764556047283
C         4.74652284089609    5.97168466266385    1.87431724782075
H         3.87000453914712    5.30231930852963    1.89232843878156
H         4.74173257477411    6.52738226760550    0.93797039583706
H         4.65424823054967    6.68633893820784    2.68876318556584
C         6.15595605536488    4.34573737551508    0.86453756509717
H         7.12025417631395    3.84656985052980    0.93578414072815
H         6.13237977865287    4.92573004505783   -0.05753603496006
H         5.36342371982976    3.58107912012355    0.81335552649267
C         8.58873644116709    2.87130815705615    5.85213587546208
H         9.04568014701364    1.94119030068149    6.23809640603342
H         8.38590444253656    2.74652157939369    4.78654440176933
H         7.62787342007563    2.99763731617211    6.38514581484148
C         9.75707173347156    4.14591465386315    7.45798036100000
H         8.84402376579388    4.33736064149393    8.05319107597153
H        10.45641781179042    4.96833965682171    7.61933256178221
H        10.20561993790063    3.21743063247775    7.86049894847485
C        10.43741138571909    7.94567009592938    2.91879116353327
C        11.67855459889295    7.61442033231783    2.35092116063513
H        11.93237428204005    6.56416999392340    2.27107601684635
C        12.54894499253250    8.59378940233891    1.92211780010867
H        13.49923289313073    8.31610021324443    1.48608214065681
C        12.21548019412509    9.93462553195755    2.05368241420081
H        12.89906070507453   10.70242444610146    1.72250066473421
C        11.00169994436805   10.27684281324487    2.62638689118639
H        10.73950848850960   11.31875951768552    2.74783889319917
C        10.11867516072371    9.30452626172816    3.05433554148247
H         9.18983980054172    9.59584153427574    3.52160308525281
C         8.35479463925762    6.89716022963176    3.54902390139877
C         7.44928134799826    7.91258170154037    2.94812931264121
C         7.41257242340396    8.06287000389777    1.56596136768299
H         8.03659275587637    7.43264806790619    0.94956590861577
C         6.58287061823303    9.00735331659371    0.99060681625665
H         6.55937073012640    9.11974808282162   -0.08381510813155
C         5.78567916102770    9.81239822760356    1.78732961755987
H         5.13842102451515   10.55067485203428    1.33660292927193
C         5.82663135226695    9.67512138654015    3.16472600098625
H         5.21583427848675   10.30917305586248    3.79125728046787
C         6.65321876880150    8.73005917461586    3.74640411699137
H         6.70748258528624    8.64326332668826    4.82301581352317
N        11.72584480128612    5.85940178098470    5.19176618187216
N        10.00537128624365    6.90146186295124    6.07817617651975
N        10.21277718989512    4.00275346014317    3.38950760830444
N        13.67897794610119    5.24617466238540    7.45787258767631
C        13.11792896027098    5.51587751990136    5.05588582009204
H        13.75979043055055    6.40581652648507    5.05892342531163
H        13.24692704284824    4.99708729342546    4.09920696677175
C        13.55557942788250    4.56112962287007    6.18219646719134
H        12.77590979584889    3.79775033571409    6.27495048035749
H        14.50138795666811    4.06461470004497    5.89707155247327
C        14.92679475330992    5.97168404599102    7.57038254396989
H        15.80330464681736    5.30230728969844    7.55238427626181
H        14.93158859116164    6.52739526758492    8.50672130603029
H        15.01908150105346    6.68632524779973    6.75592646051690
C        13.51733582617413    4.34576870444607    8.58017910915564
H        12.55303022033825    3.84661507217971    8.50893616591522
H        13.54091807599108    4.92577334825330    9.50224505384061
H        14.30985635584173    3.58109905130614    8.63137396495571
C        11.08459083877138    2.87132949236741    3.59253527560087
H        10.62765452173340    1.94120550334424    3.20658068245621
H        11.28743923856872    2.74654513148266    4.65812397881395
H        12.04544460898201    2.99767184855252    3.05951171733760
C         9.91621665881606    4.14592307406668    1.98670805472715
H        10.82925310508672    4.33738995281235    1.39148646754259
H         9.21685145780217    4.96833410878942    1.82536767046559
H         9.46768226924246    3.21743130296411    1.58419195377254
C         9.23589906122147    7.94566880300418    6.52590797218125
C         7.99475556714852    7.61442089360139    7.09377830745737
H         7.74093366378573    6.56417108036914    7.17362251996988
C         7.12436736266892    8.59379129190559    7.52258318640092
H         6.17407912771079    8.31610345608265    7.95861900518000
C         7.45783478663466    9.93462689967272    7.39102009760508
H         6.77425587588742   10.70242685337548    7.72220265678528
C         8.67161550890292   10.27684226515053    6.81831528385591
H         8.93380896981734   11.31875859556435    6.69686420678493
C         9.55463800013678    9.30452458080128    6.39036491506023
H        10.48347355531463    9.59583839388572    5.92309687473198
C        11.31851437550115    6.89715738383295    5.89567493975924
C        12.22402866119216    7.91257741919580    6.49657033648711
C        12.26073667055695    8.06286725778877    7.87873813592616
H        11.63671399700355    7.43264788155906    8.49513381202836
C        13.09044074140438    9.00734874509713    8.45409239478272
H        13.11393994160261    9.11974458531290    9.52851423194686
C        13.88763538234703    9.81239043021906    7.65736948678057
H        14.53489552684958   10.55066539254473    8.10809602478740
C        13.84668358868709    9.67511259884622    6.27997320997545
H        14.45748282176858   10.30916199626282    5.65344173521920
C        13.02009388717939    8.73005217951476    5.69829546534601
H        12.96583029932426    8.64325559763257    4.62168374621558

