66
CSD_code = MIVQOZ | q = 0 | S = 0 | Stoichiometry = C31H28FeO2P2S2 | MND = 6
C         7.83412290359846    4.86338928949708    1.83457345863827
H         8.66830062356121    4.51582235105635    1.22469321954175
H         8.12487243038090    5.78862973611425    2.33427459902786
C         7.44870064700090    3.80491771742716    2.86306726464580
H         7.51340871061229    2.81181413560675    2.41073422026008
H         8.16720567592787    3.85601415413199    3.68524339946394
C         6.03420082800066    3.96534278693270    3.40408536296191
H         5.89995084399725    3.36908383231022    4.30701049275149
H         5.30695023526388    3.64888627256572    2.65467903955417
C         3.94486954697954    5.68898956240575    2.52927471265200
C         6.70355725480061    7.60275506591542    1.38289619296862
C         3.51650834856758    9.04511614779121    0.33859903067254
H         3.10921227456996    9.58550737392064   -0.51064293840365
C         3.61878115713521    9.55854206978006    1.56246491096654
H         3.28065404018393   10.55487838416329    1.82734058179047
C         2.68535845144216    6.38112104890321   -0.32389007957949
C         1.42812786767158    6.92047126972314   -0.56610820291302
H         1.27628148025748    7.99049545107214   -0.53499256041023
C         0.36453869544285    6.07784553642595   -0.83995539315638
H        -0.61531135865033    6.49491769236844   -1.02322148991216
C         0.55067169240999    4.70611510655641   -0.87456548146120
H        -0.28516842477700    4.05515270161085   -1.08492393239451
C         1.80423875422951    4.16628814037632   -0.63047962114859
H         1.94620501016717    3.09581498267721   -0.64981864510963
C         2.86845252377404    4.99998294479173   -0.34797401948865
H         3.85199463926269    4.60085223342302   -0.13126297209876
C         5.02267257909119    7.53323616426789   -1.47529090160013
C         4.97725196146489    6.56314753554540   -2.46973849402197
H         4.34867453545982    5.69303013070621   -2.34664023557071
C         5.74178019459655    6.71777012189975   -3.61229960350097
H         5.70787382458229    5.96367311799632   -4.38490957667603
C         6.55474050833145    7.82861433912294   -3.76425285809641
H         7.15413186620947    7.94095601411362   -4.65570499929610
C         6.60688834130106    8.79370568761984   -2.77062923623457
H         7.24638688568461    9.65672276584383   -2.88551793407477
C         5.84796331059593    8.64615541902356   -1.62630123585743
H         5.89149899059357    9.38781079746142   -0.83786079009516
C         2.91127995516482    8.19717284400339    3.91722849574816
C         3.06301841390105    8.15256397225922    5.29939755472959
H         4.02070521434240    8.39363793713365    5.74073618595061
C         1.99159263379261    7.78756889412260    6.09387298591419
H         2.10810895003415    7.75114842497024    7.16707253060334
C         0.77705915788522    7.45577836415381    5.51599955729333
H        -0.05520812375671    7.16557136618538    6.14017541114408
C         0.63168037600484    7.47768499184015    4.13752515477205
H        -0.30983712991164    7.20009767758859    3.68668890724670
C         1.69739926097732    7.83890431722941    3.33667721072245
H         1.60269864237674    7.83089781751062    2.25747843634846
C         5.33301821183355    9.65095777576140    3.82174152984697
C         6.64718101867529    9.31954722102572    4.12597352556813
H         7.03996609324095    8.37113504548931    3.78560194960485
C         7.42451936480609   10.19014578696982    4.86937360274076
H         8.44620637090293    9.93305711336573    5.10637500920433
C         6.88994735460255   11.38950310970668    5.30945931337406
H         7.49703136506194   12.07167874657031    5.88619436994571
C         5.57259219287320   11.71450559818668    5.02155661934263
H         5.15560250572612   12.64508302590273    5.37857020422506
C         4.78999046884383   10.84795249560333    4.28289337334641
H         3.75518188161498   11.08704148440002    4.07637303239167
Fe        5.20926342187332    6.78192729774013    1.87399380365807
O         3.02265369731234    5.04199818293515    2.80423144799052
O         7.66552937070446    8.11781291631869    1.02075268089500
P         4.15088523939403    7.35708084945383    0.10640763505903
P         4.34446951524156    8.48739706545413    2.84151116830528
S         6.50285136680364    5.27806837322164    0.65287590338535
S         5.59546535996912    5.67631322375723    3.88240711583777

