91
CSD_code = MIVQEP | q = 0 | S = 0 | Stoichiometry = C40H42N6O2Ti | MND = 6
Ti       11.73927887665048    4.60034427827958    4.98312766455183
N        12.72869610343080    2.78575723451579    5.67227375843450
N        12.55226031666065    3.38122136957834    3.56638745149607
N        10.12708419444324    3.07061285381768    4.96583924310875
N        10.52326148440154    4.48512762129322    6.62418466657496
N        13.15827044930112    5.60546519617161    5.65068027074374
N        10.85491553305352    5.90369936049505    4.00421190297142
O        13.54070095882801    5.64332912875419    2.61469963499652
O         8.64203261736258    6.42034779325971    6.17018035581952
C        12.97723203422927    2.46534020354443    4.41535877884041
C         9.83230335543799    3.44624885526447    6.19812161203686
C        12.79145447751455    1.96935532479984    6.77082683605788
C        12.69251369471591    0.57035114019189    6.75444647020956
H        12.58715592378937    0.04797452194956    5.81520241564697
C        12.68993487305271   -0.14504915420569    7.93598682406139
H        12.60467398591467   -1.22235508657250    7.90040568034289
C        12.78598572107937    0.49797202112769    9.15891468753335
H        12.78111844896592   -0.07086742319246   10.07689940042314
C        12.87671815323247    1.88227963883111    9.19141961473859
H        12.94236393848453    2.39481967582920   10.14190320696785
C        12.87597631285591    2.60739707305850    8.01922491284803
H        12.92755020891623    3.68985318184638    8.02725417111192
C        13.73916144194861    1.25669445321559    3.99968274739746
C        13.19121958618428    0.33182820081325    3.11477981079480
H        12.18992932565325    0.48433557776978    2.73854408868409
C        13.91169334954456   -0.79224333223649    2.75282394131162
H        13.47557384030828   -1.51126201102102    2.07486316748796
C        15.18526967045289   -0.99683309586951    3.25749037069726
H        15.74575815123123   -1.87481845751161    2.97180351759540
C        15.73749487537841   -0.07612873077572    4.13296120850795
H        16.72977462016131   -0.23438252213865    4.52936346786558
C        15.01895573040460    1.04489679090286    4.50580224148724
H        15.44095940210426    1.76309575687601    5.19492667895958
C        12.86594256374672    3.35429933300922    2.16366827639507
H        12.04392768137523    2.91495987594403    1.57638133781677
H        13.77211192606488    2.75159417778950    1.96436713566723
C        13.09386346593398    4.76065665267532    1.70068461464918
C        12.98179216514175    5.36182209271339    0.48057772162557
H        12.65241528375410    4.90945598168285   -0.43267815788595
C        13.39567121335206    6.70471185768753    0.66436016133640
H        13.43974162697436    7.47183578966194   -0.08167614399616
C        13.72235150630201    6.81357775788594    1.98007993846018
H        14.08546154973251    7.63853106814305    2.56063253919343
C         9.85163647954374    1.83070242321728    4.43501901402578
C         9.81056716195430    0.65021426134592    5.19197339672672
H         9.97165645613290    0.69442212581730    6.25879654529611
C         9.60551232841525   -0.57220993378513    4.58483919322398
H         9.58715321320244   -1.46683269174727    5.19154876745384
C         9.43151546605898   -0.66397338136633    3.21375907973485
H         9.27195167104519   -1.62351033680222    2.74480744656037
C         9.47593088164538    0.49221839648783    2.44983850761715
H         9.34876460421808    0.43409137499836    1.37703721079438
C         9.68603478517551    1.71884218976937    3.04589008440383
H         9.73179831379365    2.61564570342588    2.44215882202050
C         8.76861173105372    2.78096885227578    7.00079030543285
C         7.47605495590060    2.69026324637246    6.49629450664087
H         7.25470559035769    3.12254019303934    5.53083551732084
C         6.48768892979807    2.05510940254020    7.22660034193583
H         5.48530393053732    1.98827858785524    6.82955678370081
C         6.78195144153533    1.50212689190330    8.46162326713287
H         6.00987650411630    1.00301913338805    9.02865132154061
C         8.06933125217318    1.58459434632824    8.96702529179198
H         8.30397213055963    1.14720171108630    9.92654011878083
C         9.06034910699548    2.22365832053986    8.24447360757678
H        10.07234623492568    2.27135861242438    8.62419852485771
C        10.06743853580738    5.25829468004113    7.75578430413363
H        10.90633501239171    5.50856615668385    8.41466385765150
H         9.31944340084152    4.70195649697923    8.34533980974494
C         9.44055252482227    6.52393551705118    7.25173603970488
C         9.50084593611012    7.82329630516545    7.66554805855212
H        10.05332692725276    8.20795890101521    8.49847696936523
C         8.67710377956961    8.55973457944814    6.77824600169536
H         8.48468270383665    9.61282400164514    6.80144194480535
C         8.18697001399983    7.65326120380038    5.89138559120849
H         7.52152576873526    7.75736756222634    5.05681603718607
C        13.02801649385656    6.61037071319043    6.67631927935085
H        11.99639407002420    6.96174130523923    6.73453471190847
H        13.68106456215733    7.47758863501893    6.46612039134657
H        13.33355461386477    6.22366799436044    7.66790690533177
C        14.54167781790698    5.22066846010481    5.52139935701480
H        14.67235046875514    4.51933338298813    4.69544189340278
H        14.92188353347639    4.74952996763617    6.44776173593385
H        15.17588191704314    6.10314701698213    5.32342335478060
C        11.17005812620627    7.30706637127708    3.88557334736190
H        12.10696645874649    7.53056550446038    4.39311598688710
H        10.37141898451392    7.93430641497401    4.32181027247965
H        11.26520046615352    7.60259623521300    2.82598413173787
C         9.73461426581538    5.59798027584830    3.14832190169213
H         9.38895450676461    4.58041434433073    3.33003692960422
H        10.00714859648589    5.70589144227995    2.08111885167243
H         8.89292670767143    6.28595507710887    3.33654645730662

