59
CSD_code = MIVRUG | q = 0 | S = 0 | Stoichiometry = C32H21IN4Pt | MND = 4
Pt        0.18346916392692    5.25147051285333    6.86299985560171
I        -2.24987083723918    5.80749411481715    6.19648154522821
N         1.06861122524772    7.11052976371616    6.65107017980017
N         2.90536871408471    8.34707224976699    6.92221188569431
N         0.01307465266685    3.23092375081360    7.27514897901393
N         1.06435431904239    1.33596693065552    7.80405485321591
C         2.01693293939277    4.83211526635874    7.35615137425578
C         2.97119410884063    5.85293610804690    7.38255779076538
C         4.29051675706691    5.54426573339349    7.70776810409332
H         5.06356788149101    6.29798239045461    7.70369472986437
C         4.61206000440656    4.23649615485866    8.04202748530561
H         5.63183283269101    4.00255586254849    8.31077119954247
C         3.66843008191205    3.21915762639388    8.04311341160779
H         3.96265761420481    2.22031469211245    8.32858017108175
C         2.35768240229344    3.51434355592130    7.67388824759229
C         2.35829933787045    7.10701989678674    7.01431185693843
C         0.75952725388822    8.40403214829887    6.29612798251620
C        -0.41169338828454    9.00127247461286    5.83525545308245
H        -1.31025586257899    8.42871431186588    5.68907320505339
C        -0.38606478784207   10.35429882929644    5.57385872541557
H        -1.28404574277119   10.83398786806582    5.21628210140295
C         0.76267157866982   11.12411927598253    5.76251557290248
H         0.73199898205759   12.18246001849524    5.55263388239638
C         1.93606345034752   10.55566278235125    6.21271198961520
H         2.82997328077009   11.14056497262943    6.36796297252377
C         1.91854851685998    9.19295967800222    6.46354723647788
C         4.19913121254279    8.76493987503576    7.29731439211411
C         5.03053262084768    9.35305609872304    6.35295608453559
H         4.69174992311819    9.45508866841836    5.33278250324254
C         6.28767567800867    9.79226003731530    6.72910725164370
H         6.93649561682625   10.24600343335351    5.99532440527621
C         6.71297230793727    9.64819019373819    8.03914880892093
H         7.69493773465728    9.99055699382219    8.32814023754383
C         5.87821520505831    9.06683527201362    8.97996923717130
H         6.20612997113219    8.95894032320050   10.00271294649234
C         4.61833539723589    8.62805409333205    8.61557497523793
H         3.95796525132137    8.17741767565293    9.34163030471585
C         1.19152338059554    2.66916988524564    7.57695946974393
C        -0.26947572512954    1.02382998230067    7.65252077464655
C        -0.93503742090339   -0.18710579599735    7.75631977191419
H        -0.40584842492914   -1.09627371937952    7.99878884392514
C        -2.29613738340089   -0.17400331706219    7.53297586117365
H        -2.85479467528040   -1.09469705731857    7.60581188610419
C        -2.96357840116331    1.00947953129802    7.21405330631514
H        -4.02954993081964    0.98067665439819    7.04916074256663
C        -2.30350871626606    2.21383889443540    7.09798120149574
H        -2.83700000441547    3.11274877007648    6.84511264859616
C        -0.92744818800622    2.22670329093035    7.31510050122908
C         2.07690189441243    0.38742672979123    8.05842077235897
C         3.07331224781806    0.16520837192512    7.11504313270669
H         3.08241796502874    0.74256140742391    6.20232339758542
C         4.04274745162622   -0.79046735825790    7.35896187306842
H         4.81787320791319   -0.96348880720159    6.62791780303895
C         4.01524871974513   -1.52759323587702    8.53194537383860
H         4.77252757233058   -2.27402767793975    8.71727687411406
C         3.01587231904687   -1.30921556174590    9.46546364889491
H         2.99318220318922   -1.88322940878256   10.37942326622755
C         2.04285419777172   -0.35324789416118    9.23277618884057
H         1.26237231313518   -0.17145331780544    9.95650072373343

