159
CSD_code = MIVRIS | q = 0 | S = 0 | Stoichiometry = C74H42B2F30N4NiO6 | MND = 4
Ni       -1.88299407653604    8.92675106212951    7.50180316931985
F         5.48159354111021   10.93644418895757   -0.92617677156481
F         4.41720605875109   11.91662394744138   -3.17616504478435
F         1.82691986142872   11.36519726164585   -3.84398199110522
F         0.31555020267530    9.79739796578400   -2.18107480458149
F         1.39335046711622    8.79270825348732    0.07231279112112
F         4.68771779944434   11.08255422847779    3.13519909488199
F         7.13230249709087   11.86129535278092    3.86452582358057
F         9.34805332659973   10.82547491348653    2.63182374553061
F         9.02827594262412    8.96646714402333    0.65137756126072
F         6.57408560692210    8.18191955253761   -0.08475871905747
F         4.03692000928840    7.41297211670291   -1.47725405198000
F         4.02718262458905    4.74297078837927   -1.53962099151594
F         4.02431738252997    3.29770510904551    0.78158874210311
F         4.04962465493067    4.62103870780281    3.18257666420696
F         4.10487152681632    7.28843012303254    3.25186148292850
O        -1.30391902206321   10.26545151130307    6.34614171259367
O         3.05283656043849    9.33306314689810    2.14476889674028
O         2.36592742800283   11.30383246862835    1.50451529870959
N        -0.26818135118263    7.92751463935455    7.14423979222812
N         2.31387574380742   10.36683360677828    2.26300800120700
B         4.05642027550533    9.10058435287276    0.99625335524025
C        -0.00210078816608    6.87346984515673    8.06001693610854
C         0.74557643999386    7.15570824812444    9.21365752029908
C         0.95112966372746    6.12580504642342   10.11877750138029
H         1.50886681200239    6.30777015957438   11.02203797537849
C         0.45586242605695    4.85600103768387    9.87867481475734
H         0.63412564828728    4.06822072066578   10.59462590309063
C        -0.26119995539827    4.59309560978649    8.72797447755570
H        -0.63218547959290    3.59671151547041    8.54765440527670
C        -0.51348013348680    5.59792523109907    7.80427793315078
C         1.27656148605455    8.55460408307079    9.45147876816437
H         1.63212029694565    8.95379276310957    8.49319903088054
C         0.14801538781601    9.46319715282335    9.95553109679467
H        -0.65582767407106    9.55474341879393    9.20079253225030
H         0.53212772081938   10.46054738084080   10.15644744814297
H        -0.28134056281306    9.06002069438370   10.87045187705982
C         2.45195820901454    8.60003647469795   10.42654354688252
H         2.13038640585113    8.38708085449070   11.44263480355394
H         2.89184693567244    9.59456202136350   10.41789739547704
H         3.21990391229660    7.88589993555196   10.14005059469055
C        -1.30564972806165    5.31761967833717    6.54862592728115
H        -1.54287216504913    6.27289286413380    6.06324775198819
C        -2.63355077253166    4.62631903546898    6.86083286277419
H        -2.47842297100054    3.63501539481995    7.27661749831986
H        -3.21620158801377    4.52056038378280    5.94869028670611
H        -3.20620692049080    5.21727710468030    7.57152598970888
C        -0.46860962023140    4.47756422907356    5.58074603379600
H         0.45985967223870    4.98493778341721    5.32737579456049
H        -1.02360006762747    4.29727452817432    4.66338077745921
H        -0.21997419359083    3.51773916003634    6.02610390465533
C         0.58851514655451    8.14495421508739    6.21356587015826
H         1.45013815127261    7.48048734745710    6.12782601494519
C         0.53495831897137    9.21695721484655    5.26268160036590
C         1.44757981173689    9.26776698390058    4.22491656540166
H         2.18606221626916    8.48911907190825    4.11531371788689
C         1.42615512061308   10.32784527961515    3.32006734661726
C         0.49654437641299   11.38291773069134    3.47885756409217
H         0.51892795507762   12.19754739816662    2.77134050969522
C        -0.40206026491604   11.35312343552900    4.49552517220361
H        -1.12854304979624   12.13875097451453    4.63316821187197
C        -0.44381137774105   10.26406685603158    5.42403328076845
C         3.48809495467429    9.79458084902768   -0.36040276484764
C         4.21524477078206   10.61096518063644   -1.21602865650153
C         3.67544857801435   11.13695630340026   -2.38668152723917
C         2.35815090283186   10.85984839887196   -2.72985505027357
C         1.59404011870410   10.06001752997771   -1.88797491907928
C         2.16975370960937    9.54768011816727   -0.73595634763873
C         5.52823758475133    9.61007590605734    1.47803885790990
C         5.73719698798826   10.54388206036271    2.48453898611118
C         7.00236376004894   10.96253418776471    2.88261100775735
C         8.12716722134188   10.43800233412699    2.26082457444659
C         7.96027471564608    9.49463012757906    1.25264591862822
C         6.67997781189932    9.09823553618569    0.88562797177191
C         4.05584807877127    7.46750545604605    0.88973735682571
C         4.04534425428794    6.76159648749287   -0.30845020965595
C         4.04302882255001    5.37006490665198   -0.36215522722691
C         4.04383630152408    4.63102928944873    0.81489301654569
C         4.05999769217436    5.30428659392593    2.02971982901937
C         4.07670333315009    6.69341353928946    2.04377956599406
O        -2.46196085488376    7.58814426425700    8.65762414900808
C        -3.32220964745049    7.58949594198933    9.57960261561815
C        -4.30131110949825    8.63635580763870    9.74055762745466
C        -4.35487395001155    9.70825359914065    8.78955542178015
N        -3.49794221437533    9.92585287808674    7.85913519962971
C        -3.76396221964284   10.97985077669739    6.94328615399036
C        -4.51153920959226   10.69758043161897    5.78959059709176
C        -4.71704306536648   11.72747270301660    4.88444608506574
H        -5.27470152030793   11.54548884554884    3.98114120444530
C        -4.22182579999257   12.99729031650999    5.12457681575146
H        -4.40005164913374   13.78505927918453    4.40860435220549
C        -3.50483756402456   13.26022080751132    6.27531951457287
H        -3.13387499817691   14.25661152815307    6.45564760949001
C        -3.25260046389838   12.25540187008085    7.19903693492485
C        -2.46054360350249   12.53569033928792    8.45476506841433
H        -2.22307634043577   11.58037698989353    8.93995243654266
C        -1.13282063341525   13.22743120232053    8.14279292917267
H        -1.28819457656817   14.21881765763541    7.72729829336541
H        -0.55022417113039   13.33307756877393    9.05498416899798
H        -0.55998692117308   12.63682580818189    7.43195111380838
C        -3.29787731924508   13.37530674355527    9.42277205311225
H        -4.22617769159223   12.86757482141752    9.67604485470438
H        -2.74296253615377   13.55563806074911   10.34017532918116
H        -3.54682957064734   14.33511560673463    8.97755340818937
C        -5.04243601649052    9.29865885121031    5.55172823220023
H        -5.39812887074316    8.89947693472698    6.50996257102811
C        -3.91376243993555    8.39010970751617    5.04787974053859
H        -3.11003130120833    8.29862761177376    5.80274668007182
H        -4.29779264562262    7.39273411586219    4.84693597719193
H        -3.48428538569146    8.79327945170942    4.13301151153159
C        -6.21767430344362    9.25314842987295    4.57647657690155
H        -5.89595564295546    9.46611491741761    3.56043334224330
H        -6.65750189728783    8.25859593030123    4.58506344102272
H        -6.98571124755098    9.96723852598293    4.86284182618760
H        -5.21665568992168   10.37254940088640    8.87502823230394
C        -5.21416629018890    8.58545365284611   10.77811353490916
H        -5.95291958417712    9.36389052334407   10.88739144094931
C        -5.19257993354925    7.52558985051778   11.68321174059401
N        -6.08052060858341    7.48653417782697   12.74007973174986
O        -6.82035657563241    8.51976742826841   12.85752788682707
B        -7.82425668493245    8.75206791412603   14.00579633708385
C        -7.25516931425363    8.05971417387170   15.36297996581379
C        -7.98143100830134    7.24325462821076   16.21929067140712
F        -9.24742823079610    6.91617252117301   15.92972693187435
C        -7.44106248925853    6.71883934404165   17.39038611744127
F        -8.18196960131471    5.93902819949398   18.18052401479656
C        -6.12406679779019    6.99766617461700   17.73332595450478
F        -5.59228191120190    6.49382297973831   18.84787018247224
C        -5.36082910040949    7.79762230528206   16.89077620263742
F        -4.08262486219876    8.06188178632674   17.18364880881190
C        -5.93709934685518    8.30836296853472   15.73832680305055
F        -5.16151375143018    9.06351484344789   14.92943890468408
C        -9.29550840825490    8.24058841555553   13.52438616581921
C        -9.50347304757923    7.30591940823953   12.51848007878556
F        -8.45343280908534    6.76801811687685   11.86808731544628
C       -10.76819016822645    6.88558787724294   12.12074484506769
F       -10.89716832053949    5.98605059068727   11.13941364678837
C       -11.89355237124246    7.40924299690263   12.74225906549574
F       -13.11402094245224    7.02015009958632   12.37158086267178
C       -11.72766656175478    8.35344974646430   13.74982327482368
F       -12.79623035411139    8.88079688120701   14.35080949137411
C       -10.44779692757010    8.75151449854599   14.11652175329098
F       -10.34288563212539    9.66857623846365   15.08631015602159
C        -7.82548973828248   10.38522889088057   14.11104944653284
C        -7.81590016902755   11.09206269594539   15.30869915901817
F        -7.80683647561575   10.44158835777647   16.47799927527138
C        -7.81517356504628   12.48363614674312   15.36134443694166
F        -7.80015822136960   13.11164356523897   16.53833397785341
C        -7.81670789183560   13.22177106236055   14.18373273173220
F        -7.79872058895576   14.55514168532083   14.21602243724147
C        -7.83196600740250   12.54757180273853   12.96941699004055
F        -7.82223836326049   13.22995633252022   11.81604389450303
C        -7.84708872869328   11.15841499757120   12.95641119977519
F        -7.87440917104500   10.56244530368743   11.74878335795997
O        -6.13194210402235    6.54999210578136   13.49918780441265
C        -4.26253213164776    6.47082805857134   11.52489827680065
H        -4.28479731612861    5.65634804852222   12.23259207194739
C        -3.36376907192124    6.50065461906308   10.50837134969942
H        -2.63703721118654    5.71520615251546   10.37101625739983

