37
CSD_code = MIVSUH | q = 0 | S = 0 | Stoichiometry = C15H16BrN3OPt | MND = 4
Pt        1.51288716257056    5.11873491420527    0.63917543887747
Br        2.64613707670392    5.96745046700232    6.38662216858328
O         0.96313549200910    3.55517757505503    1.78912848724630
N         2.66573638374768    7.72349056752631    0.62299770087804
N         2.17696928119694    7.40071167933849   -1.44856453408089
N         0.90382852365030    4.02601943460149   -1.00672094200008
C         2.12343408507640    6.81339830074772   -0.23052954204797
C         2.74684198178562    8.64285161702596   -1.34879673010636
C         3.05368233993453    8.84657173123369   -0.04490968483375
C         2.71004005180230    7.39421348816978    1.98649992530460
C         2.15426147502931    6.13020935481225    2.25680923275865
C         2.14820289944494    5.72332481303437    3.58564555561700
C         2.67019634896975    6.55051112344375    4.56606223277342
C         3.21320564855068    7.79069614146322    4.28025829229320
C         3.23379802893195    8.22171376704184    2.96439038533081
C         1.70536257298887    6.84096481618575   -2.68490198326225
C         0.13016301965169    1.47942661409286    2.54564436412493
C         0.44561001518152    2.45780017438924    1.43175174180302
C         0.15394399025030    2.05942495155152    0.13365010445100
C         0.39246850770649    2.81949638224819   -1.01549299096276
C         0.02701139497925    2.17670378048417   -2.33135820373361
H         1.01080810955434    4.40068708138271   -1.94364616351474
H         2.88629859345957    9.27758746174578   -2.19969134256460
H         3.50577164668187    9.69098321071006    0.43143301390486
H         1.73572923041342    4.76260731171170    3.85471890148479
H         3.61304568969203    8.41013357645561    5.06787421305587
H         3.65496266231097    9.18652191827382    2.72366388863101
H         2.32564161828935    5.99230025869368   -2.98049991487253
H         1.75486744865501    7.59952635170182   -3.46451639057288
H         0.67059868668731    6.51481779511550   -2.57398531359115
H         0.79692753304818    0.62127621892698    2.48150568075965
H        -0.89401365796820    1.12396095381647    2.46270069891234
H         0.26985296523828    1.96218093251158    3.50932988240371
H        -0.28184914163785    1.08140656499906   -0.00290974534807
H         0.60909099871505    1.26758467932279   -2.47398010334552
H         0.21375770903160    2.84511873761689   -3.17107857295190
H        -1.02610637233448    1.90121525335787   -2.33197975140510

