41
CSD_code = MIVTES | q = 0 | S = 0 | Stoichiometry = C16H19N3O2Pt | MND = 4
Pt        8.47411815338897    1.30583091956010   16.89460948477933
O         5.05673228303013    0.43521104874057   12.75025517957703
O        10.23373901970505    1.62743697472668   18.03306988593996
N         5.90555077949867    1.26566494021165   18.12951461501045
N         7.24781135430909    1.61555483231852   19.77511865769700
N         9.62683894496773    1.15498288797236   15.28422052976516
C         7.21491472141530    1.42525021428121   18.44306093100621
C         5.97723154020942    1.57589659632889   20.28496316507232
C         5.13044638197454    1.35530435945521   19.24799744826544
C         5.58949389799496    1.04651459606981   16.77936331744441
C         6.71912757811062    1.02048640242408   15.92898218552216
C         6.45028383810487    0.80995445124719   14.58643071133014
C         5.14991217791651    0.63236870761380   14.10009962052179
C         4.07071319548768    0.66352290501237   14.97072926622325
C         4.29933674064602    0.87367857758867   16.32268032220764
C         3.78343007194071    0.24706733802537   12.18703911371805
C         8.43072714826657    1.83063438435898   20.56072669984815
C        12.51854494239652    1.89780746554297   18.59374918348198
C        11.41438439221760    1.65879188481241   17.57962826607698
C        11.79666875298330    1.48348929936617   16.25806680227438
C        10.92906960259436    1.24222409420707   15.18434107631001
C        11.57508315360247    1.08058773023279   13.83012729095090
H         5.77632316127551    1.70526332551492   21.32890121918082
H         9.17478095522328    0.97818056315418   14.39093590496508
H         4.06471328540330    1.26001278341034   19.23962545237772
H         7.23244340034739    0.77253812710621   13.84301928406053
H         3.05883446905195    0.52920793978338   14.62367874945136
H         3.45998777956100    0.89936850795769   17.00214995910380
H         3.94868640997010    0.11115280014416   11.11907293506282
H         3.14001603731162    1.11940984167584   12.34398147943874
H         3.29112212076035   -0.64366718361592   12.59179860358720
H         9.29038933488688    1.80002737127506   19.89242485650169
H         8.52836933346424    1.05182344665744   21.31925648422956
H         8.38574190441509    2.80284364048585   21.05518103985212
H        12.09248426277686    2.23232313845699   19.53666298209531
H        13.22035711827452    2.64296205050156   18.22818813377703
H        13.06242166241412    0.97017155080883   18.76554361256402
H        12.85162513019746    1.53470667763570   16.03400598413578
H        10.83648033117165    0.87058147956855   13.05832750087637
H        12.29599384447865    0.26513197772893   13.85517631045981
H        12.10997078819304    1.99060135168611   13.56259575526909

