48
CSD_code = MIVTUI | q = 0 | S = 0 | Stoichiometry = C21H21N3O2Pt | MND = 4
Pt        0.30605184880963    7.46207380161498    1.76951398947032
O         5.24989475105331    5.05704599169928    2.12078103134571
O         1.26890028216144    8.11581869624621    3.41495189112998
N         0.44303320591491    5.74184487717380   -0.49569885763162
N        -1.44706599926727    6.73823387990941   -0.76210400819781
N        -1.32880841691614    8.59506084901947    2.38192094810649
C        -0.38013170464434    6.66329930966831    0.06839234914756
C        -1.28865464027394    5.87115079170640   -1.81067353898241
C        -0.09710341226342    5.24546358338593   -1.64269506815082
C         1.67819349822829    5.50367893939872    0.13055299978754
C         1.87166831442201    6.29982488737146    1.27009979634989
C         3.07524957724620    6.15588144988205    1.94761197473170
C         4.04315254673829    5.25519573068691    1.50934162828402
C         3.81124181839276    4.47801846478110    0.37406516760556
C         2.62569759086927    4.60162688727893   -0.32283024552406
C         5.53862587467747    5.79633073000359    3.28147043260805
C        -2.58371721217190    7.60280625033549   -0.60742059538526
C        -2.71992123894715   10.05230821574356    3.75396150552299
C        -1.42397663588465    9.33699574473886    3.45541862160471
C        -0.38205707158251    9.53678979214834    4.36998991893418
C         0.86911657033371    8.93495849796341    4.29823741410333
C         1.85454878852911    9.22633573321647    5.37814630150365
C         1.96470716121079   10.48001239802615    5.97119506111325
C         2.91154921311514   10.70574854665255    6.95378158625291
C         3.75829418462336    9.68629723529344    7.35648497366852
C         3.66192469748115    8.43761968009074    6.76463275833722
C         2.72050766013680    8.21172371352559    5.77908445826427
H        -2.19842866969924    8.56590818151385    1.85903516843205
H        -2.02159449863418    5.77049450085570   -2.58469725546441
H         0.38310978983263    4.50635349915233   -2.24899571441518
H         3.24983056645321    6.76553346625313    2.81997755825692
H         4.57475301188175    3.78620932098648    0.05617926741486
H         2.45313280725760    3.99770728094117   -1.20164448934065
H         5.54724101502074    6.87304970666606    3.08370967137722
H         6.53303431348265    5.47906011763379    3.59335104739415
H         4.82324526119656    5.58293505540635    4.08227690799394
H        -3.23923695976144    7.23848444327402    0.18709018189137
H        -3.14596443676174    7.62959912626586   -1.53979874461527
H        -2.24712629201755    8.61146428845463   -0.36709375385563
H        -2.58199494179898   11.12666277166944    3.63531979334827
H        -3.02646100698204    9.86680627261819    4.78140210647355
H        -3.51818633437854    9.73028329192457    3.08607474622309
H        -0.58911778814329   10.17469255873640    5.21484272573463
H         1.32498297645304   11.28799880279453    5.64822874796062
H         2.99314719605810   11.68414858980786    7.40538260082187
H         4.49504952682308    9.86678044569662    8.12571933309848
H         4.32396311362494    7.64068336562557    7.07201136813809
H         2.63420009812533    7.24190023623048    5.31141623912230

