103
CSD_code = MIVVOD | q = 0 | S = 0 | Stoichiometry = C49H49ClOP2Ru | MND = 7
Ru        0.68350034998201    2.30609778270936    2.77118102729489
Cl        0.98046017093092    4.67989350512308    3.00426332341061
P         2.92652574198010    2.21661711099479    2.18836822039216
P        -1.50248915835022    2.63234974679097    3.47243298928324
O        -0.19417171317150    1.83205581655534   -0.04061810345749
C         0.15140243131433    2.02134171718457    1.04858964339949
C         2.78034021154076    3.00318557816321    9.88490295580479
C         2.47248426135968    3.64920912890598    8.54008807011864
C         2.06123240350769    2.61701966512229    7.49570980306973
C         1.74542797461922    3.28544980570336    6.15582314362722
C         1.36654108717845    2.30810065153882    5.14392114694450
C         1.14855431405951    1.18158925183409    4.68047910249121
C         0.77729027302672    0.39904768941221    3.59053060964986
C         0.67347359733566   -0.91024794136170    3.43473157113946
C         1.00573143221486   -1.90193045130674    4.51434332819529
C         2.32143501112114   -2.63936330061306    4.22961405952480
C         2.29363237636409   -3.52860172165343    2.98689261484956
C         1.31888650566786   -4.69497705310456    3.09952410579399
C         4.02629679763820    2.70257929717031    3.54846319775251
C         4.44577048400275    4.02345991627534    3.67464810205544
C         5.20471308071630    4.40453416823449    4.76749889825150
C         5.54356650625778    3.47666129612170    5.73932761473202
C         5.10921595516594    2.16467226264536    5.62753214792735
C         4.34232767519916    1.77883069642573    4.54413736133308
C         3.62460114698154    0.62376495751080    1.62655119744361
C         4.91826818985952    0.19436509081826    1.90154924440580
C         5.37771262463524   -1.00124646282676    1.37753719281442
C         4.56162432764118   -1.76887162342645    0.56454527939927
C         3.27619994039843   -1.33960628034022    0.27631561784815
C         2.80962501725734   -0.15267574246394    0.80860037602268
C         3.49967789293873    3.27642149439674    0.82032650649594
C         2.59445204040787    4.03771008719584    0.09280052009776
C         3.03694044915609    4.82539194662177   -0.95590667276425
C         4.38106170434177    4.85309585396175   -1.28473784756559
C         5.28770151328414    4.09216974609496   -0.56238350689998
C         4.85177035863647    3.30451345016597    0.48509432640570
C        -2.63831459814855    1.20083015084083    3.47184496892165
C        -2.47017704938573    0.27098664235073    2.45070343149152
C        -3.31842951166466   -0.81499757658416    2.34358464537613
C        -4.34501958518929   -0.98350422838599    3.25819680912503
C        -4.51993601309830   -0.06047401119441    4.27556979458136
C        -3.67480913854068    1.02953456063318    4.38370389894422
C        -1.62075256068957    3.25179664727527    5.17478208037556
C        -1.66925601751445    4.62031118562710    5.42241344261237
C        -1.66535273818490    5.08531963053806    6.72596219022490
C        -1.60784795927921    4.19315434702699    7.78474656251523
C        -1.53807515490753    2.83005486705242    7.54065544160777
C        -1.53131891730046    2.35821089739439    6.24136150048642
C        -2.52136621410434    3.83097318719659    2.54949775690382
C        -2.01360302190505    4.46138687495174    1.42083596417943
C        -2.79651659547066    5.35947656442959    0.71631253512232
C        -4.08866602950468    5.62973225584332    1.13192131153468
C        -4.59965242361833    5.00258552116085    2.25798277883475
C        -3.82254175939733    4.10581785182204    2.96496991953806
H         1.90514520206043    2.48128935439500   10.26649535475723
H         3.07632276834868    3.75492883719888   10.61298734575028
H         3.59031669045522    2.28343730579314    9.78561604679661
H         3.35408355341532    4.18747704747016    8.18295929780030
H         1.66610183540165    4.37694843595309    8.66078865552563
H         1.17941561164741    2.07262430221987    7.84263449580646
H         2.86779185431634    1.89305342375020    7.35546077574610
H         0.93303589202624    4.00839547155321    6.28299206862120
H         2.61830728088678    3.84605623015509    5.80499057120988
H         0.35927466029085   -1.32099040292842    2.48566985688644
H         0.19364908313123   -2.62630662853200    4.61193067178307
H         1.10451028096171   -1.37355570550417    5.46704211475078
H         2.57262382292863   -3.25273423870910    5.09957601728294
H         3.11472887690294   -1.89654055952775    4.10436200618486
H         2.04510887905280   -2.92342895626215    2.11411459002436
H         3.30135540716491   -3.92272926905678    2.83030761316453
H         1.52256292188201   -5.27839955248593    3.99549153176663
H         1.41451546469402   -5.34972301363756    2.23605855069677
H         0.29083334987930   -4.34427497172984    3.14292015055552
H         4.16009155199581    4.74807181704912    2.92489632322649
H         5.52745813991817    5.43102255553966    4.86367783396453
H         6.13840315975383    3.77667586356901    6.58991176856913
H         5.36626156978751    1.44304565383252    6.39013350521230
H         3.98138258910567    0.76089879062773    4.46344331636359
H         5.56944447289732    0.78391237046207    2.53204437878148
H         6.38157118942968   -1.33185644158922    1.60279575516868
H         4.92673179298693   -2.69992503703220    0.15686966564277
H         2.63909318919436   -1.93172381352589   -0.36450570375370
H         1.80309923247118    0.18755063590942    0.60167419585153
H         1.54789476898312    4.02743236219636    0.36831242023358
H         2.33015272625076    5.42066163732264   -1.51464427786188
H         4.72627367583829    5.46888151003249   -2.10234771418036
H         6.33745845073340    4.11435945160553   -0.81738856109229
H         5.55921263891145    2.71195412826486    1.04865067016037
H        -1.65884555228514    0.40949489155329    1.74756057066292
H        -3.17917657230324   -1.53182656610549    1.54774993197842
H        -5.00749728156004   -1.83304737840524    3.18039511576473
H        -5.32011359860181   -0.18886390138708    4.99039283293486
H        -3.81920286791850    1.73664966713886    5.18884982022714
H        -1.69240374733545    5.31238345353293    4.59214261493495
H        -1.70178447198520    6.14822758241285    6.91568515205812
H        -1.60817651928154    4.55919094016245    8.80128234325607
H        -1.48518999679418    2.13487173841986    8.36668827499819
H        -1.45669215572333    1.29587066249682    6.04378586678843
H        -0.99515897935867    4.26337075957979    1.11308089646468
H        -2.39428808559379    5.85097942477454   -0.15703148173638
H        -4.69937711468147    6.33111253475119    0.58242931652656
H        -5.60724159239254    5.21477864147090    2.58549291347345
H        -4.22271173514880    3.61991645056786    3.84365234056265

