63
CSD_code = MIWCUQ | q = 0 | S = 0 | Stoichiometry = C25H27BN6O3W | MND = 6
W         1.08444223730752    4.57132434883804    0.53352043807406
C        -0.15033244551876    6.05959219253973    0.10067267580375
O        -0.86159796744053    6.96370797209853    0.03360597222855
C         2.20572879322929    6.01363360803048    1.30055199364597
O         2.70670953330090    6.89377430015296    1.84970648460761
C         0.22430699209489    4.82842759368095    2.21810882270226
C        -0.38586565192676    5.28174362940533    3.40842917190742
O        -0.50171094277772    6.46784717027450    3.71945527654389
C        -0.90413988058483    4.18746835228422    4.29610780458040
C        -0.75065244086327    2.84442292837452    3.95702862521488
C        -1.24254114298969    1.86147873828829    4.79484029570767
C        -1.88758465202203    2.20755132816878    5.97229918448327
C        -2.04155626192139    3.54163562044273    6.31382607968819
C        -1.55212523037337    4.52809579133009    5.47926245931258
B         1.98955085197104    1.97840755893859   -1.33438403328286
N        -0.09111745427317    2.97953203280430   -0.36621090311267
N         0.47429838497254    1.98817583485159   -1.08011320563991
C        -0.46828251209901    1.11522695047984   -1.48405572619531
C        -1.68460452768416    1.56716347072149   -1.00482053717478
C        -1.40251587397103    2.74548080653516   -0.30933064479525
C        -0.18701024652354   -0.09531249104250   -2.29838244862563
C        -2.35297351168025    3.64547297179412    0.39451129073760
N         2.46331920437733    2.93654692165908    0.92995237723346
N         2.68766974578421    1.95679674999582    0.03438845301095
C         3.56035092621543    1.06305335623359    0.53741047880376
C         3.90333776485333    1.48840446023542    1.80820879248962
C         3.19274510478867    2.67340138654350    2.01473649009259
C         4.03165232164817   -0.14135432610393   -0.19398193186341
C         3.20338712649946    3.55235847487056    3.21326234680921
N         2.07460659668547    4.48157056697430   -1.42499826797374
N         2.35446218358835    3.30707077530665   -2.01919439976915
C         2.95642460132432    3.52208795294007   -3.20247783237689
C         3.06531161106302    4.89249367876906   -3.37094023367166
C         2.49745153448527    5.45768115050004   -2.22815397797298
C         3.40163950263871    2.44124897091944   -4.11900874913975
C         2.35378860737391    6.89986706187414   -1.89463912996808
H        -0.24456763135492    2.58170304499329    3.03510649755999
H        -1.12371957221509    0.82047560917913    4.53118944748509
H        -2.27014292990370    1.43543345917395    6.62411785591544
H        -2.54370861926541    3.80996004063244    7.23178232167995
H        -1.65861160476853    5.57529649641130    5.72105402756734
H         2.30869576802147    1.05641519769284   -1.99436409322092
H        -2.64296435615265    1.10929363920384   -1.14120715170034
H        -1.11416601359092   -0.63178710282638   -2.48045267421338
H         0.25529451206946    0.17671163196679   -3.25540097459377
H         0.50668979891657   -0.75650500543394   -1.78176175935881
H        -3.33515005609737    3.18248061339141    0.44191833689080
H        -2.00329110052208    3.85644673693676    1.40618685950163
H        -2.43900159552561    4.59662036674828   -0.13208383075605
H         4.57586959765436    1.00935986010778    2.49006076620508
H         4.72548426999865   -0.69593041005494    0.43176603898724
H         3.19541843179211   -0.78903418768583   -0.45201226551890
H         4.53770824908309    0.13986000947994   -1.11610560692612
H         3.66943165118791    3.03517043112138    4.04793376388466
H         3.76548839310952    4.46490211863777    3.01189142662786
H         2.18677906589395    3.84026928778413    3.48565986944829
H         3.49582309951152    5.40843655212994   -4.20476528802768
H         3.85307819981809    2.88056814505211   -5.00436886016218
H         4.13403390521731    1.79951250791257   -3.63200662117108
H         2.55954557104227    1.82194347945404   -4.42339835766280
H         2.77312372226903    7.50510920581162   -2.69456610017658
H         1.30355128153013    7.16394282999237   -1.76728226045241
H         2.87373508072817    7.13506755247698   -0.96548485992865

