49
CSD_code = MIWCIE | q = 0 | S = 0 | Stoichiometry = C24H16F3O4ReS | MND = 8
Re        1.25212230395735    1.50211797413206    3.35746790039458
S         2.08051136096119    2.94337102883886   10.75209992804201
F         0.75662039855532    0.64875493545755   11.02127129777520
F        -0.50777469168566    2.32513388393380   10.53652822849568
F         0.25073079271687    2.09310088951026   12.54702978467551
O         3.15912290365795    2.41245191895200   11.52385951719281
O         1.72276945999384    4.31792149470488   10.89058137823121
O         1.37609536231506    4.57968401355272    3.51965436204771
O        -1.25564945488296    1.46109037779206    5.15010103424606
C         2.48154446203553    1.22449727367080    4.99518675843504
C         3.57355018700056    0.41212700608340    4.74349101751920
C         4.55499990340301   -0.27922963210076    4.51881973974999
C         5.67062581399345   -1.08357211763167    4.25374758956063
C         5.86353758405550   -1.65219969295323    2.98806020859762
C         6.96700519006629   -2.43971908553530    2.74315725703288
C         7.90808906199111   -2.68611326316527    3.74021968355136
C         7.71242707764508   -2.12073152404068    4.99822894610608
C         6.61425968987009   -1.33109258756740    5.25958442045246
C         9.09107686597367   -3.55920439890125    3.47013003823890
C         2.38372249934203    1.66788893288322    6.39020976448839
C         3.05051614490931    0.95792693198484    7.40295853721704
C         2.96576497704141    1.34956536457544    8.72366721640018
C         2.22029206658690    2.46867823993105    9.04278673344748
C         1.54633617270603    3.19311056288696    8.07459615336284
C         1.62599319342215    2.79234211507890    6.75661090530504
C         0.54216981246237    1.94437434809360   11.26384498551680
C         0.44094584461536    1.00637488422384    1.18189702655480
C         1.74220266024768    1.54328617148052    1.05385504976732
C         2.64952443024548    0.66130542584954    1.69701695999374
C         1.90765267869174   -0.41808815040361    2.22239553277094
C         0.53853910453916   -0.19862740455045    1.91742723282559
C         1.32480714243126    3.43103327315954    3.51161133268195
C        -0.30626327531789    1.49776179340877    4.50308930324033
H         5.14158937704486   -1.46938902162728    2.20537514088224
H         7.10786856821808   -2.87254340058624    1.76295958460501
H         8.43543130601150   -2.30445966033538    5.77980210213747
H         6.47238413327653   -0.89221820817170    6.23621467255020
H         8.82901167463486   -4.60259524741216    3.65117468531030
H         9.92152654736229   -3.30361154966703    4.12378391860729
H         9.41213348379810   -3.47070851510559    2.43469044872746
H         3.62531197712985    0.08265861957306    7.14205295368127
H         3.47436701314342    0.81525878426847    9.51022685599488
H         0.98011530557990    4.06206022305982    8.36870591489182
H         1.10992843472986    3.34757826256945    5.98745062502405
H        -0.44969397406310    1.38680794860582    0.70663615597063
H         2.01637197912148    2.39763908377333    0.45203258414749
H         3.72670218229177    0.73181619573108    1.65466100035040
H         2.31702778173568   -1.31949998226349    2.65563760173328
H        -0.26114351356109   -0.90841451574752    2.07350993146933

