88
CSD_code = MIWKIN | q = 1 | S = 0 | Stoichiometry = C46H36AgN2OP2(1+) | MND = 4
Ag       -0.21934248037993    1.00690891281166    5.71835854380025
N        -1.40972126815069   -0.42309198886913    7.21845392716709
N        -1.66631675750117    2.32555178221703    7.05405791447620
O         1.64871916634670   -0.76427856009223    4.42290221500437
P         2.04482398232602    0.48930852585849    6.85391417015256
P        -0.18200627796863    0.81821094836668    3.21422659535149
C        -1.03662802113323   -1.68296787890668    7.40764243733900
H        -0.65472815477302   -2.19918846618240    6.53552814404675
C        -1.13117074916930   -2.32714739485003    8.62978934389424
H        -0.81822894727696   -3.35383644057574    8.73059984400928
C        -1.63095230538580   -1.61696216388972    9.71208664009962
H        -1.70879794313686   -2.07657941942171   10.68557815869318
C        -2.02840484564174   -0.30538042156062    9.52158601532637
H        -2.40039363721853    0.27871952397058   10.34794278408406
C        -1.91242683821485    0.26071347624315    8.25242269729903
C        -2.33975321540037    1.64636940039003    7.98924090797954
C        -3.40937544515569    2.21353310850004    8.68043489532307
H        -3.96128382326195    1.63305882484912    9.40221938995534
C        -3.77380155338367    3.51952036041419    8.40562219914001
H        -4.59984091243960    3.97868810026947    8.92663357947361
C        -3.06020937804299    4.22214613957995    7.44686548701698
H        -3.30476822948973    5.24336256666152    7.20429570382493
C        -2.02187000114865    3.57696579850579    6.79677049082241
H        -1.44308424865796    4.08651625382396    6.03782685585288
C         3.35544461274512    1.28840808506512    5.87328161738437
C         3.00444871959646    2.35306375554799    5.05176727029929
H         1.97362224833004    2.70384480769091    5.05528647320228
C         3.95129185076697    2.95092883417585    4.24109517660380
H         3.67474631969418    3.77408570833332    3.59976846041729
C         5.25625519020224    2.48690809018575    4.25122799280211
H         5.99694434094895    2.94919583475881    3.61709228023563
C         5.61410435829420    1.43109904004201    5.07516994566216
H         6.63330817228164    1.07499040269424    5.08436456970980
C         4.66883836598096    0.82746356617684    5.88362664021547
H         4.94338372781581   -0.00096961094595    6.52302645385817
C         2.56861208347122    0.73019553841878    8.57883506332947
C         1.82749669490161    0.07074056104306    9.55868755174721
H         1.01661108003592   -0.58158764531142    9.25899948668539
C         2.13170210045011    0.24043000627710   10.89512710688539
H         1.56217831370111   -0.28243852904383   11.64926238766728
C         3.16664125155208    1.08561897456182   11.26573917095605
H         3.40535496328645    1.21985885785238   12.30958312371633
C         3.88785774166373    1.76332009259149   10.29712475387345
H         4.68700676150352    2.42891335306763   10.58665551534365
C         3.58945080529161    1.59439082518025    8.95585726971151
H         4.15062118704280    2.13160079533839    8.20464247114062
C         2.49943143100032   -1.25556992727214    6.56103248843192
C         3.02835157631053   -2.15352971817037    7.47720254403339
H         3.21520041698434   -1.84175607511948    8.49439571236707
C         3.32999994518487   -3.44529641688490    7.07732710824581
H         3.75267194224211   -4.13805885826067    7.78869707745730
C         3.09919102882950   -3.85206068265448    5.77332276119836
H         3.33873390914416   -4.85962289376843    5.47109267218263
C         2.55804224806931   -2.97139884350793    4.84981040078285
H         2.36178535139013   -3.27685404660611    3.83266165342715
C         2.26299910410767   -1.68004745780187    5.25008220991850
C         2.28908335803473   -0.26583161142904    3.32108119783142
C         3.60142572640529   -0.52479766371022    2.96989971530271
H         4.20228586445179   -1.20066160944036    3.55970426810127
C         4.13606213657456    0.11059511536075    1.86021577856098
H         5.15915085645493   -0.08839017819234    1.58179756531642
C         3.37557101346424    0.99603179625951    1.11644689803032
H         3.80539045417840    1.48625784788260    0.25702452164763
C         2.06116675987876    1.25449775495995    1.46934588188725
H         1.46577029150910    1.94574338449350    0.89092603709430
C         1.50654011874845    0.61735759613128    2.56788334240104
C        -0.86996812034626   -0.81119452659530    2.78758018825621
C        -0.50005642636543   -1.48547675263473    1.62718522840091
H         0.20293976097883   -1.03305453257255    0.94081079523670
C        -1.03320503186207   -2.73314746466661    1.35914383311323
H        -0.74793644385665   -3.25594651590873    0.45843134009210
C        -1.93086095967775   -3.31320618722237    2.24238743377825
H        -2.34153722816794   -4.28834905647248    2.02889514482345
C        -2.30066354493987   -2.64375492783562    3.39779087137094
H        -3.00078627814226   -3.09591930893342    4.08468585425743
C        -1.77094931619992   -1.39521847632582    3.67031237257786
H        -2.05208064219983   -0.85684660649372    4.57137352726243
C        -0.91801028037623    1.95498151424204    2.00026892147285
C        -1.83867623257608    1.56608492382314    1.03554521257212
H        -2.14717199619310    0.53302168972712    0.96397638426435
C        -2.36077272504929    2.50853209600465    0.16581960122402
H        -3.07332211351552    2.20449070398644   -0.58611001842252
C        -1.97438296065316    3.83522052357252    0.25691684608877
H        -2.38392606781143    4.56437773064837   -0.42524357031179
C        -1.06750316385696    4.22997002242503    1.22906911840018
H        -0.77188245799296    5.26581962055145    1.30461716609516
C        -0.54839566636850    3.29519102891859    2.10334718357210
H         0.15553535729056    3.59091465749560    2.87312701088765

