65
CSD_code = MIWPOY | q = 0 | S = 0 | Stoichiometry = C28H26N4NiS6 | MND = 4
Ni        2.24005074367107    2.42758642336559   12.45224453166126
N         3.67476690458646    3.73230944056489   12.75300607538353
C         3.57061440463927    4.83518184935933   13.43288150206197
C         2.48006014976142    4.93608256481282   14.36661955678095
S         1.98575730668203    3.48623637700189   15.20113102288563
C         0.72485497628500    4.33491068034178   15.98985637955741
C         0.70370069365730    5.65684063361371   15.66092463167729
C         1.71258581824881    6.00772749330985   14.74685883977697
C         4.59141045998004    5.92012358697866   13.31513696000600
N         4.80221605226706    3.53350771371354   12.03173836214073
C         4.94335156869785    2.30954497005963   11.62153458383072
S         3.85940475330280    1.01928520049133   11.99266881419364
S         6.32849647625798    1.90101114422511   10.65985317759112
C         7.16713025609056    3.54479198304391   10.56330690601967
C         8.14985168694121    3.53857822171772    9.44138878948826
C         9.39476592900647    2.94047671255464    9.59980698261753
C        10.30063713004667    2.92033807355618    8.55551080509040
C         9.97210595662629    3.49613385208906    7.33953589536657
C         8.73317419125290    4.09051746282484    7.17236366575745
C         7.82604853878782    4.10905614034062    8.21670774897695
H         0.08172391383459    3.80696805493420   16.66619880277734
H        -0.00994689471450    6.35893787501811   16.05554812228804
H         1.84074832085264    6.99940932175737   14.35079698700101
H         4.24475328753525    6.83401106552869   13.78634839963109
H         5.51473402454866    5.59850053691441   13.79686113186255
H         4.81558670106248    6.09288250695934   12.26389417678322
H         7.64653701598843    3.70324694379712   11.52837235337826
H         6.37541583625168    4.27671539019519   10.41643907112148
H         9.64816445554797    2.48596965034562   10.54637067714603
H        11.26496771240483    2.45320963053653    8.68966945074435
H        10.67939236381224    3.48023323680225    6.52379847653684
H         8.47177750764913    4.53959278777231    6.22541681743073
H         6.85974684349191    4.57480471457089    8.08463626520990
N         0.80470390371356    3.73217766945509   12.14944876034240
C         0.90842878108382    4.83482664691240   11.46920169802050
C         1.99913774779647    4.93589642815763   10.53566534674166
S         2.49388764571889    3.48622111020418    9.70123043698981
C         3.75458026990908    4.33525380731624    8.91255073870738
C         3.77552004852276    5.65714182986560    9.24164998111913
C         2.76645392833197    6.00772053138193   10.15563933821214
C        -0.11283794484720    5.91941317124273   11.58615239077074
N        -0.32272883409629    3.53307702874363   12.87075547420841
C        -0.46333835055619    2.30913554716958   13.28122825605654
S         0.62091077396198    1.01906166639682   12.91016898160252
S        -1.84815872012776    1.90021892544350   14.24325390776438
C        -2.68669575634456    3.54394046285730   14.34025275808757
C        -3.66997650279316    3.53780304926100   15.46169042859731
C        -4.91490331465918    2.93985428824478   15.30276955565438
C        -5.82155398860673    2.92065721053657   16.34640387698287
C        -5.49381243536528    3.49720792376923   17.56223941694985
C        -4.25475518176763    4.09115788446795   17.73001896275660
C        -3.34685604659086    4.10876361091184   16.68633216438763
H         4.39781577818867    3.80749759073326    8.23615894499723
H         4.48905078256568    6.35939763484791    8.84709642523894
H         2.63796430953694    6.99931307615344   10.55184877156676
H         0.23464158680164    6.83393045996082   11.11678759339065
H        -1.03511870294399    5.59832182396609   11.10212631833006
H        -0.33928459341219    6.09086017650721   12.63707479450144
H        -3.16561712784400    3.70290131351622   13.37502870019923
H        -1.89495987463324    4.27572235449636   14.48776449215588
H        -5.16777217660040    2.48480414021438   14.35632315135208
H        -6.78594036368376    2.45376535976530   16.21180410776460
H        -6.20182411594729    3.48219476559623   18.37736599944214
H        -3.99386300611673    4.54070214715501   18.67688431461955
H        -2.38048360382980    4.57423812676370   16.81885794967440

