39
CSD_code = MIWTET | q = 0 | S = 0 | Stoichiometry = C12H22AuN2PSe | MND = 2
Au        4.47759254807182    1.65559524102251   20.73398816431913
Se        5.18916492600094    3.86836449053597   20.03285932395897
P         3.89347215755258   -0.43417147481568   21.40076507208758
N         4.98433014331158    1.94396753846645   18.13041425714187
N         5.69586229506583    4.05654547668813   17.34886941675039
C         5.30981155622263    3.22644012610935   18.29998950564332
C         5.04411720343420    1.45758660351487   16.89832000459254
C         5.76756931261387    3.58403239517643   16.11586836946787
C         5.44167225783814    2.25703507180108   15.83432479981746
H         5.49249033938970    1.86786403057141   14.82951763749741
C         4.67268759466410    0.01787571749409   16.71719926869944
H         5.57413027724475   -0.58458253783194   16.60596365764138
H         4.06536535096438   -0.10940706869713   15.82381290583212
H         4.12331398956178   -0.32974257900377   17.58880607230472
C         6.17014403118985   -1.33087914061376   20.07576191215893
H         6.06455798873132   -0.45605318258017   19.43627750287922
H         6.66545149889061   -2.11934121837244   19.51223713893792
H         6.80604187105695   -1.05595570942724   20.91388088677396
C         2.13925702621179   -0.92409360877917   21.14414233293391
H         1.97994061173391   -0.92244587699146   20.06073436523532
H         1.98222916110317   -1.94327501032311   21.51386859413200
C         1.18340940860512    0.06158986469529   21.80446494787813
H         1.24095539428570   -0.00028201873527   22.88871813459252
H         0.15795202369061   -0.14594491802143   21.50649247719614
H         1.43112756471290    1.07956779963004   21.50475999546409
C         6.20430756724751    4.53134823337056   15.04581010034460
H         7.10505589695043    4.15934889047038   14.56000275653204
H         6.40425656506925    5.50395046884238   15.48501316454843
H         5.42609367943131    4.62699472886117   14.29012837282425
C         4.14373622358562   -0.75739324024386   23.19193355000390
H         3.48882450059833   -0.05944827548951   23.72204619620794
H         3.82552222490005   -1.77949088311603   23.42553637567139
C         5.58871384123319   -0.51559894544450   23.60829278334261
H         6.24842619080690   -1.27300673874048   23.19076529468486
H         5.68162080931054   -0.54481009444094   24.69187793738136
H         5.91924732679317    0.46283808548385   23.26019026382055
C         4.79885628323608   -1.79746936288381   20.55251558222115
H         4.88410172562383   -2.65382635688561   21.22944852722609
H         4.19329063314736   -2.09882652136741   19.69180235116215

