103
CSD_code = MIWVAS | q = 0 | S = 0 | Stoichiometry = C41H56MoN4S | MND = 5
Mo        2.99204257752760    9.58147406555325   15.72003777179245
N         2.17646794490182    7.78836711175358   14.95916109049501
C         2.23656293630702    7.10261973011176   17.20961850902338
H         1.30887554190660    6.86865515172979   17.76122663554566
H         3.02846885000213    6.48753473004952   17.67564925852819
C         2.07433818732114    6.72702088682861   15.77005084172820
C         1.88441987591180    5.45087807557103   15.27351383209329
H         1.81680599961201    4.61144736290385   15.94786886193454
C         1.78052835563712    5.27655054362008   13.89636412602928
H         1.62209804188655    4.29401271655038   13.48072375625889
C         1.88959168316480    6.38551727352267   13.06224369308019
H         1.82590829775275    6.28441941909489   11.99003457327424
C         2.08096783658162    7.63045164260468   13.63227691515433
C         2.25404545742065    8.92356433540668   12.89890495984269
H         3.05134118000522    8.82461017363056   12.13927502677451
H         1.33168456651904    9.16006614777756   12.33967738400141
N         2.56363683974494    8.51174445816719   17.28945488045891
C         2.33016014125648    8.99655207397905   18.60200134114851
C         3.38909672914061    9.11801280381856   19.51367277659711
C         3.12274423778812    9.49708468474915   20.82171296473161
H         3.93849433011178    9.60446234362584   21.52037250937381
C         1.83032737829012    9.72248429038696   21.24932682333150
H         1.63391773418757    9.99083323667417   22.27702016562282
C         0.79058668329850    9.61784860090278   20.34748390850969
H        -0.21746939160153    9.81069063433591   20.68309865362365
C         1.01845623307717    9.27103540486124   19.02302100625251
C         4.81732310119680    8.88718210568438   19.08694441894423
H         4.80628303293370    8.49389377926148   18.06546965277769
C         5.55258806291035   10.22851596812105   19.05014428934465
H         5.03893582643360   10.89755036385507   18.35939359222878
H         6.57384966427398   10.09073281669863   18.70181534624674
H         5.57485674069302   10.68631781633175   20.03623676913291
C         5.53767936295460    7.87816352955526   19.98331144009108
H         5.65634487840997    8.26137603945681   20.99344221176469
H         6.52952033205873    7.66934283932033   19.58595885216933
H         4.98185958302669    6.94296675924317   20.03696222780132
C        -0.14747076809376    9.26187058534011   18.05966217095067
H         0.23558169814518    9.07833126693480   17.04000378280937
C        -0.80644912663606   10.64170591836513   18.05412531558630
H        -1.19512601283042   10.89490596802660   19.03689491874905
H        -1.63336132982689   10.66068924043963   17.34870997447434
H        -0.07209067015036   11.38904507931102   17.76609297898492
C        -1.17787226229949    8.18564238431252   18.41436231128420
H        -0.72978604743424    7.19323495380406   18.44155146582406
H        -1.98139772855056    8.17695395999045   17.68000392492152
H        -1.61164568996764    8.38296499393891   19.39195600223113
N         2.57929372344813    9.96179507480698   13.85563264782997
C         2.35768598563462   11.24233344077096   13.28697066669361
C         3.42557735463496   11.97630976971121   12.75010437389214
C         3.17158568844595   13.18139847862368   12.11066123602067
H         3.99423403462483   13.75359607102054   11.70942872038401
C         1.88313480272140   13.65291675425076   11.96406830683024
H         1.69668620419398   14.57960311686790   11.44135803520897
C         0.83437569530652   12.93713733920732   12.50545546078754
H        -0.17071666066626   13.31791031593316   12.40147948376902
C         1.04950686737168   11.74238655708470   13.17820990446085
C         4.85023376515507   11.50157056086275   12.89256373630811
H         4.83060652042117   10.49678318293741   13.32648462954103
C         5.58557801478940   12.40916633841539   13.88076865049479
H         5.61619665921871   13.43395352028381   13.51842061157448
H         6.60392383270738   12.05761957505420   14.03155620042023
H         5.06650843791119   12.38666284043155   14.83920195054576
C         5.57765515149788   11.43120049001899   11.54850466644921
H         5.02378458853005   10.81531560161855   10.84100548006485
H         6.56762816379708   10.99864997307976   11.68375932533829
H         5.70115519492718   12.41988406007380   11.11418607869630
C        -0.12701139970573   11.04825702340798   13.82746180554616
H         0.24496037148993   10.18397410876135   14.40578160478457
C        -0.79123796456126   12.00394363041465   14.81915180799996
H        -0.06319651539166   12.30895116268108   15.56595672782170
H        -1.62685733248221   11.51313720503679   15.31181454548213
H        -1.16870312824469   12.89068774178545   14.31691523742766
C        -1.14902781317730   10.56388853534086   12.79461320447482
H        -1.57519879851561   11.40809221319973   12.25756112724660
H        -1.95894908216443   10.02936855797136   13.28787373759048
H        -0.69572757063042    9.89667835814935   12.06265957097447
N         2.88756008866091   11.16098961743924   16.38669233558222
S         5.38119189422709    9.58074622522180   15.72956448627710
C         6.08513743190512    7.98952942697514   15.05921088602762
C         5.65282934863426    7.74968607163615   13.61783633662188
H         4.56602864420494    7.63520245844794   13.56757005651836
H         5.94022524914171    8.60330347558163   12.99996857970696
C         6.31962128325370    6.47995010366171   13.08403980103071
H         5.99913731537196    6.31422205490599   12.04834790322314
C         5.90561987365227    5.28642266651802   13.94332538922085
H         6.36633229296334    4.37326348387847   13.55943766823639
H         4.81996228251715    5.15433856261859   13.90282881732775
C         6.34965060575675    5.52791333300844   15.38511893371951
H         6.05134011550005    4.67594211811541   16.00792147258943
C         5.68255577580475    6.79734688389547   15.91897971083601
H         4.59576407673171    6.67178959853354   15.89806082675359
H         5.99125197958751    6.96837215296042   16.95254131488883
C         7.60300887796342    8.15487440275889   15.10736183012740
H         7.89018469031512    9.02053260455336   14.50845452557106
H         7.91194559018147    8.34816180311481   16.13576459357874
C         8.27430137356580    6.88820715462044   14.57481365164231
H         9.36166715026040    7.01385452672547   14.61252961300237
C         7.83757798129202    6.64645582021009   13.13059395415264
H         8.13768263150171    7.48973097159544   12.50488504098766
H         8.32171973768945    5.74891601277623   12.73884621644291
C         7.86765703979420    5.69322460044419   15.43597940457913
H         8.18916998706402    5.85155454458804   16.46758506028960
H         8.35247099622552    4.78567346116682   15.06889814485470

