110
CSD_code = MIWWEW | q = 0 | S = 0 | Stoichiometry = C56H44O6P2PtSe | MND = 4
Pt        1.12679418303669    0.13148537046327    3.73664605429169
H         2.08559199575178   -1.02934118140914    3.69173296133060
Se       -0.58047706990508   -1.50228237092619    3.30227086386777
C         0.42966839255621   -3.20424207295356    3.07843721322529
C         1.22516330570671   -3.61696721557524    4.30314665678458
C         1.28220363034509   -2.95824152055206    5.51397504038150
H         0.71563763251672   -2.05071464231047    5.67553162300295
C         2.06566215610551   -3.47105922483681    6.53600574038429
H         2.11121671602569   -2.94827358923251    7.47924792114227
C         2.77904031936798   -4.64120020154244    6.35779436495792
H         3.38235116396329   -5.03733053907595    7.16183371607302
C         2.71153873654284   -5.31799484823563    5.14963225832704
H         3.25531320536621   -6.24100437214855    5.00562026740139
C         1.93564578389538   -4.80554951557388    4.13123269103038
C         1.42368209482880   -3.17979126454745    1.93281216270898
C         1.64044830654698   -2.14160088845788    1.05073129628559
H         1.03645102663752   -1.24545181057378    1.11259952168064
C         2.61330524069036   -2.26282357018387    0.07030951163633
H         2.79294123874553   -1.44262164512184   -0.60970796780157
C         3.35227432623624   -3.42652645442751   -0.04179254420245
H         4.11179051276727   -3.51401325485547   -0.80554126699247
C         3.10823393240414   -4.49149442153550    0.81353202013401
H         3.66500177035034   -5.41277994506864    0.71480229477391
C         2.14430071091386   -4.36596543583084    1.79252047341737
C        -0.45527123835550   -4.39755808553789    2.78120595216215
C        -1.82966290564681   -4.38979839570107    2.66464792081713
H        -2.37019074144609   -3.46102619260903    2.79222085218306
C        -2.49654291969783   -5.57297925260708    2.38359996364780
H        -3.57258405254465   -5.57089518492753    2.29130486832770
C        -1.79247410370783   -6.75241480054474    2.22008823052647
H        -2.31876385772480   -7.66972169319165    2.00009935957337
C        -0.40988809329757   -6.76417643707398    2.33666812268146
H         0.14270852293749   -7.68418060817210    2.20906734324996
C         0.25478028166847   -5.58831114212179    2.61678566035864
C         1.74787592844800   -5.43560544890897    2.77587064883500
H         2.29623212600120   -6.36946942762985    2.64929297564409
P        -0.48941825153921    1.76848402499686    3.97405136602924
O        -1.37217960339956    1.42935259162324    5.26167574506145
C        -0.86743119941879    0.60387931357965    6.24510088747187
C         0.44401404630448    0.72605504272743    6.68557790329838
H         1.06664378812875    1.51661803362290    6.28783167933624
C         0.90194488454288   -0.10320838088462    7.69808757485650
H         1.92094450558294   -0.00748811053905    8.04265136271910
C         0.06005994694114   -1.04779259197231    8.25970090579630
H         0.41710430018412   -1.69192834612260    9.04895783922719
C        -1.24419430550176   -1.16781369669903    7.80810663272650
H        -1.89881992976775   -1.91087293146154    8.23693529221826
C        -1.71357401735283   -0.34665747867091    6.79851798831418
H        -2.72190997297654   -0.43035569021365    6.42428243775485
O        -1.65532132612458    1.96240638861327    2.87974263604090
C        -3.00587139436512    1.94942073354514    3.19223132011309
C        -3.65558205051257    0.74165178131980    3.39051986237533
H        -3.08616280514742   -0.17735899604355    3.33176920864059
C        -5.01235504312802    0.73674734544923    3.65911494561740
H        -5.52075463076452   -0.20273595816283    3.81557863870936
C        -5.71419687939536    1.92891525994169    3.72943463603328
H        -6.77286740963875    1.92161208326080    3.94158504144493
C        -5.05653805567587    3.13085243435432    3.53085532956158
H        -5.59955233728510    4.06252796472470    3.58829219125052
C        -3.69796484936248    3.14750858488508    3.26590703372304
H        -3.16842926385392    4.07639065183105    3.11574772553008
O        -0.15560688967304    3.30788242183172    4.40067175008448
C         0.59923879430844    4.16176432180496    3.64870445563796
C         1.13823022101937    5.27691191494142    4.28073355028170
H         0.95585800234116    5.42202144951827    5.33400400885046
C         1.90331631136697    6.16960487840503    3.55500853923878
H         2.32576824589627    7.03149935712880    4.04972528325290
C         2.13742219588623    5.95743428107826    2.20502831506523
H         2.74103836128369    6.65458161226340    1.64361350444280
C         1.59079102886197    4.85199412028459    1.57774021547988
H         1.76242005586824    4.68020722627474    0.52565450895318
C         0.81878102564869    3.95465328897252    2.29534564452310
H         0.36752083501915    3.10037176301517    1.81035909576247
P         2.93955924483981    1.50011388170897    4.10359710087192
O         4.20353253832106    0.82727869375217    4.84103282279473
C         4.58302616163097   -0.48156565988214    4.61930167730865
C         4.91162676864380   -1.25651557674136    5.72185171225268
H         4.86144972285899   -0.81724687061306    6.70592228033232
C         5.28527448622691   -2.57575634282228    5.54305478225028
H         5.53614711118976   -3.17892292336776    6.40190696996628
C         5.32075613992044   -3.12534851381609    4.27296558337905
H         5.59313778724978   -4.16073159224548    4.13930145571920
C         5.00225845424888   -2.34624092175433    3.17531706823044
H         5.02039899210732   -2.76729311434105    2.18198852700043
C         4.63768780245608   -1.02163973524203    3.34295857079653
H         4.39100813850193   -0.40969885547403    2.48722114825254
O         3.72522638043797    2.20792844513095    2.86784260868525
C         3.45476784782310    2.16236160997460    1.52343477999324
C         2.41620578557130    1.42483216574107    0.97879843567299
H         1.77353210051567    0.83082085700407    1.63147907768534
C         2.20456034321062    1.44365316776062   -0.38858472864462
H         1.38817647548072    0.87351296482507   -0.80571021712161
C         3.02846517024668    2.18863332883808   -1.21494157470608
H         2.85949611280280    2.20109757908841   -2.28091402399182
C         4.07225518446679    2.91643883895343   -0.66755686874096
H         4.72184152066203    3.49704940272496   -1.30528382990414
C         4.28869364960762    2.90817101241999    0.69816170317234
H         5.09588797328519    3.47105309216608    1.14061408185310
O         2.75386504484780    2.74899699927122    5.08408676445849
C         3.82223100677952    3.46921628866473    5.60697133293195
C         4.48023201043017    4.41780559649264    4.84177372077941
H         4.18626011101350    4.56994253511423    3.81572159843557
C         5.49934486343103    5.16027418340355    5.41293965982713
H         6.01419471526333    5.90060483959933    4.81906108452206
C         5.85919577261068    4.95764894098510    6.73435533376521
H         6.65537412871535    5.53934479506578    7.17375962080328
C         5.19697816630451    4.00586858141342    7.49107382322321
H         5.47463367168869    3.84211401619050    8.52148823691872
C         4.17853346562636    3.25658957814147    6.92946723179077
H         3.65332055836544    2.50809330651020    7.50297262215615

