146
CSD_code = MIWXUM | q = 0 | S = 0 | Stoichiometry = C51H89O3P2Re | MND = 6
Re        7.34001042057992    4.20050142859888    7.27456576015782
P         6.22369236142107    5.06547316199651    5.22520248228379
P         8.97474683249635    3.46029748597459    8.99000196071813
O         8.14590756667333    7.13104546094192    7.88453589011532
C         7.91304184891842    6.03521708599757    7.61378664284485
O         6.04945255897996    1.42393632843168    6.79141828930540
C         6.59548976073474    2.42132751427978    6.96230768081873
O         5.03573430421150    4.51600520194485    9.33567755815220
C         5.86882148195998    4.44904085787978    8.53995283624130
C         9.07374087538246    3.70525665714770    5.95344676463129
C         9.22238847639921    2.44520683809156    5.35498854021532
C        10.29986248230854    2.10965971195939    4.55257960444879
C        11.30460001486988    3.02772373726055    4.31107011676475
C        11.20673674969891    4.27953263434664    4.88936673674866
C        10.11969471346151    4.60015266167225    5.68553821210310
C         7.31234521125130    5.69215930384200    3.87650918270378
C         8.02301518496255    6.98979802087614    4.24990410442866
C         9.17622753279941    7.29996352896851    3.29775257751234
C         9.98141576024208    8.53304208805783    3.71569967405233
C        10.70715225113589    8.33147629745886    5.04517015962229
C        11.74901216294965    9.41251617821687    5.32466177538870
C        12.32170566767950    9.32466986815561    6.74138637689926
C        13.03434078128987    8.00335620343249    7.02616886872286
C        13.65371943066277    7.98096144707719    8.42224358580721
C        14.37269436833372    6.66866073605120    8.74748340756221
C        13.45990118497143    5.44305847286847    8.83659231898595
C        12.54848573983888    5.46297249083481   10.06299099412882
C        11.52635257376047    4.32159022525538   10.06973712413841
C        10.46938160591553    4.53593234875202    8.98868314554539
C         5.11520333191715    6.51562677873373    5.47877149475914
C         3.86186664369586    6.16827935932219    6.27597757617423
C         3.13241513847828    7.40389353489046    6.80592799144157
C         3.95204517123413    8.19190071615825    7.82702712827899
C         3.10684760796307    9.24458102196684    8.54237236595418
C         3.94449694021343   10.25131659393068    9.33495935923624
C         4.89587351074875    9.62848769532581   10.35752350212494
C         4.17634529826854    8.88523102869168   11.48047562163285
C         5.14256058775869    8.22158097391851   12.46357234979486
C         5.79462836082927    6.96683477891356   11.88626728171238
C         6.73446221536345    6.29554525625058   12.88631125002276
C         7.17035294725074    4.89884755595341   12.44264183949081
C         8.03363680115110    4.90872461395773   11.18360057568950
C         8.38629895783503    3.49318217346981   10.73607121664745
C         5.12122557885802    3.91798351658959    4.29836675153280
C         5.89765477298960    2.84198110477648    3.54456994850165
C         4.97323479709799    1.72784647201635    3.05739087409854
C         5.70336009991373    0.64970778555886    2.25453758278549
C         6.79718461184032   -0.03390745754457    3.07222235638492
C         7.29007796315538   -1.33463123216467    2.43766031365614
C         8.56919823365204   -1.85461075925694    3.09826317885410
C         8.37914391525784   -2.18642049481958    4.57694253881602
C         9.69957670431539   -2.44121676893960    5.30409705470202
C         9.56178227609395   -2.31963054025471    6.82415931851720
C         9.31150627023620   -0.87737672768437    7.26223574053997
C         9.24851660517033   -0.71704289966704    8.77894564996174
C         8.73705723426765    0.66335454789251    9.19797486401617
C         9.71175110014534    1.78294309984548    8.84363099311627
H         8.47371020616221    1.67774111812428    5.51813909410355
H        10.35423715273880    1.11951464157699    4.11731450506206
H        12.14999721454221    2.77175304948965    3.68743981424926
H        11.98734726430771    5.01247855366601    4.72247773428271
H        10.09187172619307    5.59496557742846    6.11564181165262
H         8.05512717863971    4.91121017358394    3.68834397341902
H         6.70066836914726    5.81918560085286    2.97708674158746
H         8.41150296782801    6.88276612235003    5.26180826282505
H         7.31739969126718    7.82335347784021    4.24578559704063
H         9.84493371891559    6.43664412430469    3.25973183761308
H         8.77728519482215    7.45512426877795    2.29159567746014
H         9.31999743148332    9.40015240395868    3.78292395571463
H        10.72119659536542    8.74203687706787    2.93878974660717
H        11.19969026645426    7.35933615884844    5.01839184484424
H         9.98421739157415    8.32635858554687    5.86306868637622
H        12.56124058120093    9.33076219295588    4.59810091520830
H        11.28816911388735   10.39518875988216    5.19484266535773
H        13.02505100735959   10.14841849061694    6.88891756172683
H        11.50959073987339    9.45307940506475    7.46164164842668
H        13.81684143152023    7.84384430091160    6.28012722079696
H        12.31644101214100    7.18836793602774    6.94038614097819
H        14.37764904135177    8.79632083459860    8.50004824985317
H        12.87469896452117    8.17151434129362    9.16284651670802
H        14.90039283552689    6.78354937133431    9.69791168733669
H        15.12388084069970    6.48643647699347    7.97499928475499
H        12.86165737192562    5.37478002314789    7.92880426395111
H        14.08374680779294    4.54650382426123    8.88046639274321
H        12.01047984102447    6.41130298591319   10.10892978208725
H        13.16700938680729    5.39233537465952   10.96144262790012
H        12.04862681464770    3.37641290326027    9.91145478776345
H        11.05428797603988    4.28604548005811   11.05347812491342
H        10.90560719742019    4.39910022494036    7.99533008635235
H        10.09531655794139    5.56346714785959    9.04540847455609
H         5.70896544875405    7.25341186633774    6.02390017115212
H         4.85561128324860    6.93126859124509    4.49974164692930
H         3.17789702312259    5.59387072285118    5.64720667778246
H         4.14731517171182    5.53351258673929    7.11855879418802
H         2.20527104486835    7.07470173492662    7.28127872371058
H         2.86165398452229    8.05544883249781    5.97088794857039
H         4.36637386292266    7.49330759167209    8.55576492714916
H         4.78493638056542    8.69360578378457    7.33006146047514
H         2.52692592292324    9.79800228610363    7.79850275671548
H         2.39370512853508    8.74951051517895    9.20362814873417
H         3.26858989386043   10.93969754804068    9.84884582031608
H         4.53808840941240   10.83948519355139    8.62977603778302
H         5.49799757858044   10.42787344102033   10.79803473659232
H         5.58003883924465    8.95348132250328    9.84394448695131
H         3.54398377187081    9.59498084879224   12.01999110035606
H         3.52702969573825    8.11588720829757   11.06011496062616
H         5.91667750144205    8.93627484304995   12.75387424927466
H         4.59406764059087    7.94510448297070   13.36780619018203
H         6.35022141644905    7.22847808502735   10.98529293765728
H         5.01295755738426    6.25894745742137   11.60093482791136
H         6.22105549120140    6.20648997979582   13.84716733316749
H         7.61494538728656    6.92395569533525   13.04102199309285
H         6.27884556939686    4.29540061680151   12.25614150875167
H         7.72962093940867    4.42294160667188   13.25316317490734
H         8.94267658884919    5.48490998330784   11.36883775940701
H         7.48848494523349    5.39800485713637   10.37153509536539
H         7.48546174122307    2.87087060492300   10.75978973545867
H         9.13605583895559    3.03456849088972   11.38725776054643
H         4.46230717443937    3.44919338337721    5.03668344791724
H         4.50434647205083    4.51066349591942    3.61431855339122
H         6.65618821244714    2.43098029866135    4.21195578639087
H         6.41366756805055    3.28316165707954    2.68935362881762
H         4.49305739856992    1.26204703425917    3.92159091408172
H         4.18518353728214    2.16387347930322    2.43688119358981
H         6.13708699774020    1.09123305459706    1.35423036094499
H         4.97333317077588   -0.09893452166795    1.93673606414985
H         7.64507268787130    0.64441618852029    3.18328272371893
H         6.39599111256115   -0.24096641233993    4.06567638411145
H         7.49161543841281   -1.15813304318579    1.37791827550806
H         6.50723535004264   -2.09382581361530    2.50345067930760
H         9.34292597019476   -1.08821123792405    3.00310050435068
H         8.91978419866251   -2.74142801579952    2.56472481358341
H         7.88072154615545   -1.34593181567196    5.05425142710679
H         7.72762373061296   -3.05703425414732    4.67860053259389
H        10.44337184136160   -1.71542846635766    4.96535520038583
H        10.07349678663045   -3.43526041082024    5.04865046697621
H         8.74309500831316   -2.95604481087019    7.16820330496466
H        10.48062580677125   -2.67763462816053    7.29546451196088
H         8.36403040357070   -0.52829801574417    6.84983268757929
H        10.10372561204522   -0.24788714956229    6.85249374441326
H        10.23610126069729   -0.89022550407593    9.21395478435176
H         8.57149961400495   -1.47283204551960    9.18475011708828
H         7.77824304861552    0.85411111206818    8.70961366510100
H         8.56242753199935    0.66468294085944   10.27653173024610
H        10.03648298187872    1.69963291125063    7.80274139149827
H        10.59426201023639    1.73619130130104    9.48779733837708

