136
CSD_code = MIWYAT | q = 0 | S = 0 | Stoichiometry = C45H84ClO3P2Re | MND = 6
Re        7.36892176616139   21.90795629385929   -0.76704911629917
P         9.00227714714820   22.59708060018803    0.96230685781090
Cl        5.83620200717872   21.91960358092343    1.10716135765576
O         6.61467142014055   24.89196282540820   -1.13215125992917
C         6.91102220753504   23.79215735750765   -1.02444800940564
P         5.34743074125160   21.21673757583615   -2.02048294313580
O         9.32224678010643   21.89268830423459   -3.15681578877809
C         8.59131642591322   21.89847183913549   -2.26278401185202
O         7.86182565082507   18.92451935844464   -0.08497981281351
C         7.70086492277894   20.02395194755801   -0.35901394380029
C         9.56146236550825   21.29711549936757    2.13530693795891
H         9.99597203196191   20.50215703826570    1.51943511193898
H        10.35846297565210   21.71418226352989    2.76002236635809
C         8.42150174537790   20.73012568422207    2.97680898060901
H         8.09378379077657   21.46921094778339    3.71108597205397
H         7.57237884401382   20.52388995658379    2.32515463338894
C         8.82652659220353   19.44459822629145    3.69114103573355
H         9.66160584056811   19.65669108747124    4.36536674481262
H         9.17494340777305   18.71701015252241    2.95342369083721
C         7.67899434816915   18.82907644519904    4.49351095124257
H         8.07861470269984   18.01174714597352    5.09996650296499
H         7.27238102944260   19.57810646984982    5.17707444459859
C         6.55456980975278   18.28318940403391    3.61406096735640
H         6.08218735606458   19.10414618056385    3.07536979777381
H         6.97779871998316   17.59483489680050    2.87813955599596
C         5.50248934619367   17.54849363564228    4.44268694346333
H         5.01820134915330   18.25565860435382    5.12029709628935
H         6.00445011445126   16.79581076023022    5.05724498245121
C         4.43735575007305   16.84939304891562    3.59656253504019
H         4.92800927359576   16.19759399737192    2.86913741270505
H         3.83467472915881   16.21381459858356    4.25119014221201
C         3.50952701766370   17.81555200582852    2.86251206826973
H         4.09718837121411   18.42357388477283    2.17544862980517
H         3.04092182754744   18.48547554846473    3.58733580708746
C         2.42396733618302   17.06743984448781    2.09025879127647
H         2.88836184111425   16.46325310687227    1.30844187804548
H         1.92209900238691   16.37568024731326    2.77241127511606
C         1.35795815553369   17.98193677757193    1.48178148467824
H         0.85594771302673   18.51469398486606    2.29326943716423
H         0.60888155647544   17.36066365257445    0.98342024157528
C         1.88743966250221   19.01529648669836    0.48643427639285
H         1.06423746341722   19.67872595987285    0.20680923419692
H         2.64156174176781   19.62720743068026    0.98056035440814
C         2.46203691651507   18.38944091660467   -0.78356930034922
H         1.65635538519204   17.88311791849125   -1.32105443845334
H         3.20822153980090   17.63765765706197   -0.52273638889081
C         3.11246267065021   19.42285703635594   -1.70840714179791
H         3.25782157615407   18.97614388563841   -2.69465219744657
H         2.43857760727543   20.27409347002302   -1.81937931444447
C         4.45621165916923   19.87302412500799   -1.14338078490712
H         5.15064133832915   19.02499779193333   -1.10988406285139
H         4.33481585818870   20.23606084640766   -0.11865340130824
C         8.33156502878592   23.95499388135568    1.99921351854470
H         8.17586404815387   24.80184630757117    1.32019985722878
H         7.34477429791182   23.60650113397351    2.31751792414385
C         9.15041141474646   24.39968139285208    3.20722908839211
H        10.09185528700741   24.84133592173562    2.87254440607315
H         9.38589984166389   23.54679020190025    3.84608126629498
C         8.37526287994326   25.43622766905498    4.02644442987225
H         9.06214221566424   25.93890091934347    4.71191539719036
H         7.97699168317288   26.19032129021066    3.34621474831702
C         7.23931803475978   24.81457289839131    4.83772634176356
H         7.67175032526701   24.15044605031990    5.59137482794006
H         6.60595877762720   24.20402025135715    4.19477689068452
C         6.36900429648925   25.85105402101674    5.54988399105152
H         5.66970970444569   25.32088775766254    6.20128731136907
H         7.00549280296558   26.47161048748389    6.18654327107236
C         5.56653842086476   26.76643581451420    4.62193648304315
H         6.24429670239022   27.36708823634309    4.01207916605563
H         4.99852476526485   27.46146341283185    5.24654569792599
C         4.59348687168749   26.02046324507383    3.71009160774704
H         3.97202857398097   25.35378922432077    4.31272832736847
H         5.14930592274486   25.40922208978579    2.99973574217191
C         3.69565727386031   26.98955986284828    2.94330441175901
H         3.17470788668358   27.62797005964518    3.66218972618051
H         4.31552624432409   27.63822940819996    2.31900688375415
C         2.65401167135683   26.29452449940129    2.06521334616482
H         1.95663852346865   27.05022364582290    1.69273825967178
H         2.08102611292081   25.59062971648571    2.67344398901463
C         3.25695556162266   25.55592662233396    0.87184347194988
H         3.90240255859666   26.23945040634088    0.31442167092134
H         3.87038253242928   24.72976292114504    1.23024935682665
C         2.17163350477294   25.01988483140446   -0.06121073354534
H         1.50943840419349   25.84427520900974   -0.33954041020425
H         1.56995774646162   24.27954417779359    0.47137155528527
C         2.73148334332672   24.39363090814942   -1.33946841277863
H         1.90738493252419   24.19075707965918   -2.02988985488801
H         3.39890813600878   25.11104332703778   -1.82417293307489
C         3.49256985992768   23.09843900539183   -1.07467402586299
H         2.82462587817246   22.36999708708780   -0.60981083915132
H         4.29738750255242   23.29647102039750   -0.36666997328662
C         4.09280171617011   22.51834477263503   -2.35244088852394
H         4.61529468104243   23.30647523541855   -2.90552065233201
H         3.32305328980412   22.09849104692519   -3.00864677273774
C        10.59670221477516   23.26030381403829    0.32772031528592
H        10.33163550083269   24.06529112993735   -0.36577637020850
H        11.17247685606230   23.69138707678631    1.14977790457499
C        11.39152476829303   22.17900104947176   -0.40619853939027
H        12.02194255086912   21.63509572866141    0.29997646891167
H        10.68653070197796   21.46237960740945   -0.84344824280155
C        12.25064398033229   22.75742658763033   -1.52769271519587
H        11.59695393920559   23.30568562389491   -2.20642528266416
H        12.97636643609045   23.46232753208425   -1.11437679651095
C        12.97902492987009   21.66082351751690   -2.30197995213724
H        12.25299551950780   20.90505358742558   -2.60401849613332
H        13.69829462461784   21.17466307372184   -1.63782103456186
C        13.72325287445351   22.17994086175936   -3.53474960018106
H        14.38928093458544   22.98938377469858   -3.22484928181143
H        14.34628815533087   21.37485470799473   -3.93194157582244
C        12.81173325135141   22.69136176831649   -4.65303105076884
H        12.11625755453462   23.42697604597455   -4.24686333071686
H        13.42570080283799   23.20450212154422   -5.39744384073238
C        12.01469420909445   21.58545073643592   -5.34239844094899
H        12.68810649011524   20.95798685360436   -5.93133699823925
H        11.54321359943102   20.95388165781603   -4.58909639848215
C        10.91315843990812   22.15381484720156   -6.23365599190016
H        11.34782052109197   22.79180157616354   -7.00696760907356
H        10.26750845310352   22.77443912140131   -5.61209794319972
C        10.08355070499027   21.04848708692469   -6.88405566647352
H         9.82421945463865   20.30862296070390   -6.12566889895302
H        10.69393960205798   20.54023964666914   -7.63477616365012
C         8.80675369679108   21.55880512991575   -7.55664074407616
H         9.07361938851142   22.35693297180820   -8.25372779815204
H         8.36727423914511   20.74545701942328   -8.13993757715099
C         7.74922634146105   22.09081324703723   -6.58623021908511
H         6.95131855779052   22.56414153407278   -7.16431905612527
H         8.18945776046199   22.85974163663172   -5.95026103041312
C         7.14255931015209   21.00761080749566   -5.69682210196295
H         6.59311879138932   20.29003620588644   -6.31128763899666
H         7.94140103130641   20.47110022291667   -5.18454283189593
C         6.21642455403543   21.60132631439532   -4.63847470091423
H         5.39955058163716   22.14073895802926   -5.12189283723109
H         6.78693201713127   22.32425689495305   -4.04387358817802
C         5.65385112692984   20.53220103385374   -3.70040781966834
H         6.38575490047348   19.72847532266965   -3.56764267610517
H         4.73413194534783   20.09662925070838   -4.09724790046795

