63
CSD_code = MIXMUE | q = 0 | S = 0 | Stoichiometry = C30H26ClN3O2Pd | MND = 4
Pd        7.31952455648780    2.79445963319371    9.11295623355734
Cl        6.09201798552013    0.94982040272180    8.32569058864738
O         5.05262215492039    3.41983820288518    3.88370829136399
O         4.52149929482444    1.63269337240994    5.13314257772961
N         8.58809194572710    1.67638045721234   10.23710290916037
C         6.14704371901068    3.96209927998276    8.07363601784046
N         6.20212776598173    4.22772169064947    6.76039285675902
N         5.07605209567674    4.63649035353284    8.55143678391403
C         8.40456147853228    4.29070805235873    9.87383877237323
C         4.73807907456699    4.71143612928004    9.91566321628046
C         9.37319830970820    3.83969714997300   10.79741409942178
C         5.35619761050151    2.54278006587077    4.65442150306312
C         7.20023501063666    3.68864724965160    5.86718560622471
H         8.11644304905187    3.51693680485938    6.45863577539614
H         7.38925732649115    4.42217792136522    5.07912377092852
C         4.14778295718744    4.91130605806920   12.62176395895594
H         3.92159499710593    4.99054893830592   13.67417553891446
C         4.46508215063062    5.32045186710650    7.52459648318416
H         3.57592387987196    5.89871478212118    7.66198635204335
C         8.58917191073393    0.35115551150073   10.31294696364858
H         7.86480066511163   -0.17009798186932    9.69555203034591
C         4.95802294816756    3.62067021460277   10.75919332063758
H         5.29781629046829    2.66018324949849   10.35665249650377
C         5.16773024700961    5.05587536925312    6.40174062279608
H         5.01470358852679    5.37568279493042    5.39183428968129
C         9.11853333781826    6.55885960162610   10.35030494609565
H         9.01784866225452    7.62058783477219   10.17189521611681
C         3.12560871258340    1.80505854760834    4.89471433049372
H         2.70868458218576    0.79567100456539    4.83018133051383
H         2.97657685069614    2.33157385946236    3.94626993781979
C         4.66567313317179    3.73371591425401   12.10831228201987
H         4.83273541643952    2.88908566362941   12.75995393095730
C         1.58601956748765    3.57958484144330    5.81224839898996
H         1.30374901752622    3.83125084330485    4.80010132678083
C         2.87200975120843    2.25281793441623    7.34441712565421
H         3.60724627988136    1.48135690764819    7.52073237294023
C         6.73780478537869    2.35980333380956    5.25094006728322
H         7.44075260424118    2.05638555558536    4.47532468596608
H         6.67969783934536    1.58786632559936    6.02272626245105
C        10.19093295993192    4.74317616999268   11.47676564228768
H        10.92952220797732    4.39344273629329   12.18350634307066
C         9.45766156360127   -0.35110521069462   11.13125064665897
H         9.42278924346576   -1.42829995805387   11.15946019874212
C         2.50487289624267    2.56586005322101    6.04048006943714
C        10.36095749143134    0.36362131038761   11.90279400550235
H        11.05416679764615   -0.14652481330378   12.55550984487782
C         9.46142510359691    2.39152033952672   10.97682425502856
C        10.36189722596096    1.74299179102650   11.82380703492372
H        11.05740203637536    2.31642416073154   12.41503090729227
C         8.30261475865683    5.66507638182451    9.67415792187407
H         7.57754284175535    6.06349737034810    8.97319626165540
C         1.03048657672063    4.26785611819556    6.87771429306381
H         0.31381881125757    5.05493458238247    6.69222466516927
C         2.31497145422006    2.94255503113957    8.40598077148199
H         2.59990846223563    2.69123297428550    9.41693903070871
C         4.21178741531680    5.89049714505882   10.43190093834724
H         4.05339709803328    6.73979131846646    9.78485078374790
C         1.39336934319404    3.95058592410420    8.17557293481438
H         0.96093274133497    4.48853532359961    9.00731635636674
C        10.06271584625435    6.09878723487793   11.25353797420033
H        10.69716953738171    6.79643117890015   11.78090085259550
C         3.91401261925558    5.98435831185049   11.77917200793999
H         3.50632341546777    6.90365878864487   12.17199298674024

