93
CSD_code = MIXPIV | q = 0 | S = 0 | Stoichiometry = C45H43CuINP2 | MND = 4
I        11.27100158323294    3.02242739903232    8.49109449780747
Cu        9.00593129726826    1.96784096792983    8.28554028498853
P         8.78153670303373   -0.30846591470818    8.70152056467336
P         7.27747334767867    2.87074390476699    9.55264345113446
N         8.24857863846875    2.03981153680467    6.38716472709836
C         9.13704465555656    1.93327989459834    5.40384414874849
H        10.11455838164044    2.35247177604732    5.59771257581478
C         8.84967705608080    1.33448954222953    4.19514151443812
H         9.62342366459100    1.27893124164041    3.44674424448543
C         7.57897600831979    0.80941372914479    3.95990963783837
C         6.64798271735060    0.96916099159843    4.98330037353892
H         5.63224065432200    0.62406650634092    4.88326150617192
C         7.02315854675149    1.58279588911859    6.16350546498472
H         6.30855729719395    1.72104918419229    6.96784083642523
C         7.26634145101514    0.12506054936386    2.64412665762446
C         8.24326468566700   -1.04298877272894    2.44997486140950
H         9.27330419225762   -0.69929651613997    2.41643637038370
H         8.02519929220317   -1.55815379891479    1.51718181292171
H         8.15093480838504   -1.75333390840973    3.26945934789463
C         7.43585090931395    1.14278703915599    1.50727620322079
H         6.75996705781522    1.98403511448468    1.64843223210637
H         7.20859102035394    0.67461649691880    0.55226316855166
H         8.45230661456448    1.52465496528968    1.46669645062182
C         5.83932733768274   -0.42669015664633    2.59617546544205
H         5.67596471989675   -1.15626032324101    3.38665897776517
H         5.67541972570811   -0.92346220375878    1.64245034826480
H         5.10531368830460    0.37091600929181    2.68762982329687
C         9.33197640436878   -1.22832639486455    7.22178972968399
C         8.77559379052469   -2.41961207886474    6.76954871610531
H         7.94038835379089   -2.86675594457514    7.29024263206325
C         9.29750473279048   -3.04074218562897    5.64960519110686
H         8.85990526077934   -3.96522654974447    5.29962504843529
C        10.38041536092948   -2.49134461941813    4.98185174763401
H        10.77970227976102   -2.98316221198897    4.10699143348020
C        10.95444881781119   -1.31935269983449    5.44453693101387
H        11.80919569237420   -0.89485238918658    4.93927582374495
C        10.43306658791889   -0.69184056098026    6.55977711336246
H        10.88556558129127    0.21647416342557    6.93343853470313
C         9.81997694575382   -1.20240038271469    9.91252177540937
C        10.97452857551437   -0.57555514536705   10.36669994904014
H        11.21908400600036    0.41990049990194   10.02569837118939
C        11.81622012786939   -1.22567154549705   11.25143802644811
H        12.70928576392740   -0.73012580276426   11.60189493372578
C        11.51152311649679   -2.50517108168577   11.68249571319821
H        12.16426137443479   -3.01333133306960   12.37712909831742
C        10.37129248856318   -3.14054444633201   11.21531531154665
H        10.14003001695421   -4.14480877035472   11.54072782851326
C         9.52920480022558   -2.49827422807521   10.32810252074623
H         8.64546051260940   -3.00161625917365    9.96070409590583
C         7.11803092873838   -0.95587177259743    9.03940838252346
C         6.19509850361027   -1.10023357441810    8.00387005498609
H         6.50776684201003   -0.93252750839872    6.98188631006725
C         4.88805268803484   -1.45886580014958    8.27773078472224
H         4.18384139251116   -1.58082742907372    7.46683207539371
C         4.47886649674434   -1.65321536947726    9.58769925297153
H         3.45712425042694   -1.93131947777180    9.80008493891053
C         5.38233369698060   -1.47886764356438   10.62425786607299
H         5.06544272347562   -1.61316230044233   11.64816227606238
C         6.69154707448544   -1.12661795730802   10.35571120957678
H         7.39199247233577   -0.98729261131528   11.16745920026571
C         7.33065865208480    2.04488034792891   11.17439591551789
C         8.59758585840123    1.63288985229202   11.58526677281644
H         9.45585910444238    1.87076943845501   10.97011414591592
C         8.76270056641161    0.94863230568683   12.77354120817602
H         9.74846719601867    0.63003075659635   13.07945406953706
C         7.65834770737882    0.66564959372781   13.56234142238003
H         7.78036474036531    0.12396373338157   14.48897511490046
C         6.39825989411684    1.08114521293240   13.16350761275735
H         5.53893575789333    0.87029329406705   13.78421871186582
C         6.22819935206680    1.76667771764203   11.97335168100430
H         5.24057959096303    2.08634706501927   11.67196628909269
C         5.50031330227981    3.21604510585830    9.32778044695395
C         4.66101623592152    2.11491980254513    9.15677922223904
H         5.07294552511270    1.11690637735691    9.23543976521994
C         3.31521695322602    2.29310338700731    8.90515908957441
H         2.67228169791287    1.43245567085843    8.78691244169132
C         2.79526096623209    3.57412109784334    8.80026840954335
H         1.74333644898765    3.71606836892289    8.60077597184790
C         3.62811015257985    4.67100004327567    8.94696532878995
H         3.22491709223122    5.66972525401410    8.86104526162770
C         4.97662791589336    4.49815408099072    9.20502275596077
H         5.62143327720727    5.35823853241788    9.31972891031416
C         7.93582426521849    4.51856999193180    9.95073585081092
C         8.03295879471886    5.02005126536339   11.24316008688700
H         7.69135848708106    4.42895648393535   12.08198294939891
C         8.57966662390600    6.27376916178479   11.45022561874507
H         8.66169675614614    6.66123946801468   12.45546923190104
C         9.02875436886765    7.02734697227141   10.37818851909303
H         9.46442820385461    8.00052639364397   10.54924026662796
C         8.93213109141309    6.53044276660406    9.08844905396881
H         9.29509882006772    7.11131787424386    8.25381134802796
C         8.39093091504574    5.27777482548089    8.87509593981341
H         8.32957997120232    4.86642802590131    7.87453216242364

