67
CSD_code = MIXQIV | q = 0 | S = 0 | Stoichiometry = C32H24N6NiO2S2 | MND = 6
Ni       10.04353081154301    5.96557232328861    3.44030078651071
C         7.79315202446245    5.08652752532484    2.21543006392412
C         7.76812533423288    4.37895169439335    3.48268333228394
O         8.75797906531763    4.39497278997266    4.23832394144275
C         6.52467804326716    3.73077719390304    3.87549554782588
C         6.42336719989016    3.21984729218995    5.17165800667232
H         7.28733245016155    3.30025903968814    5.81401347189906
C         5.25089065382075    2.64918805207726    5.61067391447983
H         5.17199770515783    2.25952151108605    6.61440561247382
C         4.16202331193509    2.59158074180871    4.74917725228443
H         3.23095524235293    2.16037168793953    5.08773420042090
C         4.25621933955086    3.08086571277511    3.46298333384677
H         3.38425118457887    3.02585542306089    2.83083914197030
C         5.44048544908262    3.65091863927728    2.98380476548503
C         5.59176019376491    4.13476880429689    1.61848349019555
C         4.61785938268788    3.88333189330613    0.64880569237558
H         3.73586474834065    3.31959711856807    0.90747156367401
C         4.75760497503188    4.31719180238141   -0.65199359302545
H         3.98559628085343    4.10621905922185   -1.37720460743003
C         5.89929591736769    5.01001297926234   -1.02544162721398
H         6.02682650302852    5.33768779913890   -2.04669989025560
C         6.87840792095902    5.27104567321278   -0.09236929688161
H         7.77269885188326    5.79224500514848   -0.38986983533411
C         6.74959970195001    4.85492685320271    1.23772873501673
N         8.81132698205724    5.93987325435409    2.10627842806583
N         8.88177914804668    6.75799176276999    1.09477670434161
C         9.91999071683808    7.58229828881437    0.99945051582316
S        11.24322207263373    7.59094458338343    2.07233516076701
N         9.89406547138594    8.41465782175903   -0.05563370630972
H         9.03630314460848    8.42882924942368   -0.58698405322952
C        10.86979650888943    9.43754737046725   -0.30795294541633
H        10.95627036879476    9.59809563075717   -1.38145829566439
H        11.82878935002472    9.11021860610153    0.09184907122852
H        10.59748887418668   10.38059304153953    0.17574960997621
C        12.29417584516792    5.08664292949251    4.66479802838318
C        12.31891450746405    4.37891746050387    3.39763889015492
O        11.32894617366680    4.39503929884029    2.64213053929371
C        13.56227170677261    3.73070063964518    3.00461083528368
C        13.66328781675647    3.21960945315338    1.70848614056068
H        12.79917920108086    3.29994840542199    1.06631562375411
C        14.83562673203219    2.64878984238951    1.26931172202518
H        14.91428573579890    2.25898123486437    0.26561667368773
C        15.92466543206896    2.59121170456978    2.13059558331279
H        16.85564421090312    2.15992275810968    1.79189351018170
C        15.83077397885759    3.08068408268386    3.41673833813267
H        16.70287778976052    3.02570372674490    4.04869772339936
C        14.64664755974329    3.65088896729341    3.89608712793414
C        14.49568765603062    4.13493209291605    5.26137330166535
C        15.46985123633931    3.88369490130049    6.23083987494372
H        16.35181135841804    3.31997296953708    5.97203136133862
C        15.33043505571153    4.31776492986523    7.53160406789198
H        16.10264021450774    4.10693209646965    8.25664740873026
C        14.18882242185274    5.01062032808303    7.90523073251885
H        14.06154179480699    5.33845100706320    8.92647031836859
C        13.20946040892423    5.27146891912866    6.97236846495361
H        12.31523006381413    5.79268787431102    7.27001235781026
C        13.33792799926934    4.85512967062854    5.64230438373938
N        11.27598973500953    5.93997608150593    4.77406335750739
N        11.20552078891886    6.75798770123941    5.78564717523733
C        10.16719659067530    7.58213940004548    5.88114704073872
S         8.84390290996390    7.59079712517944    4.80832723103574
N        10.19318003798113    8.41457359231279    6.93615790352817
H        11.05095786493915    8.42889114797367    7.46747078940323
C         9.21727741889209    9.43728780645897    7.18856351996743
H         9.13105304705786    9.59796861313442    8.26206714867208
H         8.25825309391319    9.10966837540403    6.78906413833664
H         9.48922868420950   10.38032863983382    6.70464419527736

