61
CSD_code = MIXZEY | q = 0 | S = 0 | Stoichiometry = C24H28N4S4Zn | MND = 6
Zn        0.51801633104633    2.20188053658942    4.14055200198417
S         1.96610052998119    4.31089697504073    4.12676662591489
S         2.06220588061656    2.11423920636739    2.14016171955091
S        -1.70849403857767    2.72958391597092    3.06307288356505
S        -0.91047409366567    0.08613122476814    4.13805218303762
N         3.41545973642177    4.33908387954840    1.94603098237549
N        -3.11909048303755    0.54558496537087    2.80876874259795
N         1.94091126809563    1.20841846421072    5.44821309062055
N        -0.16262671663810    2.73508457637783    6.13430052514681
C         2.54635250166323    3.65178689125600    2.67714291957573
C         3.85786535107315    5.68069889398861    2.26359215206227
H         4.60342778503832    5.64188889869639    3.06665276906138
H         3.01467116330729    6.27789483903526    2.61745491923856
C         4.46205920276275    6.18219245613940    0.95648589563998
H         3.68039870191051    6.59925376416707    0.32086549161611
H         5.22455461340030    6.94107086401834    1.11813911690126
C         5.01745170592619    4.90318945433292    0.33168453804421
H         5.16410492264606    4.98622720891956   -0.74283616872535
H         5.96978837121679    4.64446473871304    0.79606672759748
C         3.96053160690198    3.86357471488564    0.69048201904968
H         3.16312094552890    3.81414007519235   -0.05989638007423
H         4.36423966827150    2.85580374536873    0.81373305399163
C        -1.99954607483428    1.07088492319912    3.29111067959108
C        -3.44963613945432   -0.86218984741804    2.88625972550769
H        -3.79364132062069   -1.10363552257730    3.89903189597610
H        -2.56259291368408   -1.46562524476551    2.68084628393901
C        -4.56150752135225   -1.03167054026221    1.85634058691819
H        -4.13204364913677   -1.20103167966693    0.86849824485488
H        -5.22415737045028   -1.86013854633980    2.09698767388016
C        -5.26514623925039    0.32406763281308    1.89552410309499
H        -5.92771896706479    0.37535698426217    2.76040752517488
H        -5.84582909475236    0.52599407352099    0.99819013478077
C        -4.10667028011095    1.30158914529085    2.06533732415858
H        -3.68473205910971    1.60749539238354    1.10095178206919
H        -4.37698094601058    2.20744502593072    2.61306975605828
C         2.94457821980027    0.44740956086895    5.08438365890929
H         3.07961962154495    0.31475806261238    4.01967970319707
C         3.80173335965301   -0.15995432549579    6.00083287368517
H         4.61030778448274   -0.77777239070583    5.64088407197382
C         3.61450602804684    0.03154975890729    7.35339878772056
C         2.53309478259886    0.85117964227531    7.75720435664404
C         1.71573819116709    1.41420738619392    6.75249445053508
C         0.60045943554032    2.24150014017258    7.11849106355969
C        -1.17937461253539    3.50501728400427    6.43818165361559
H        -1.75961715609001    3.87800707051640    5.60530379013378
C        -1.51104349772989    3.83356973649858    7.75181310538981
H        -2.35862129795595    4.47494345242700    7.93954469410539
C        -0.76017979259645    3.34027649348496    8.79773884247555
C         0.34031016370215    2.50790967117673    8.48076824630399
C         1.19095666138268    1.92872545512296    9.46431634684905
H         0.99285075114825    2.12950594373432   10.50561926596105
C         2.23341131583525    1.13483978690467    9.11957296462916
H         2.85721828749301    0.70673807861541    9.88864878798799
C         4.52346530491690   -0.60756097442206    8.35284130188957
H         5.28520849112035   -1.19746640998469    7.84997338499713
H         3.95998162315494   -1.26186056031091    9.01676703182994
H         5.01615451559195    0.14997325508850    8.96104547409942
C        -1.10011631093114    3.67702952661910   10.21355972957216
H        -1.96823164855643    4.32987987993417   10.25036886467769
H        -0.26485620143198    4.18287101775989   10.69622354042168
H        -1.32152639740857    2.77269137267820   10.77910248406117

