79
CSD_code = MIYBED | q = 0 | S = 0 | Stoichiometry = C36H36I2N4Pd | MND = 4
C         3.85966295698300    3.29866075941628    0.12227791333034
C         1.34559193185140    6.25740696508255    1.04402820246574
C         4.69044097332200    1.66639306302531   -1.15771025385300
C         0.22216723084980    7.97883924948259    1.90236032370345
C         4.91526196928441    0.66036942776405   -2.08281985347755
H         4.13917272817557    0.33033905735596   -2.75481056806655
C        -0.28835114159537    9.00425816480410    2.68126770511162
H         0.09966003889190    9.20996193575788    3.66593676658302
C         6.18127404581461    0.10763758651112   -2.11278243073921
H         6.39748444959653   -0.67864995424922   -2.81954231154202
C        -1.31037885439590    9.75772712168235    2.13556932357947
H        -1.73406037147950   10.56580807356961    2.71178909803927
C        -1.80552162555248    9.50406179542557    0.85811272748511
H        -2.60040274405679   10.12280036168059    0.47059290149677
C         7.18911828751401    0.54362030355841   -1.25471377486190
H         8.16427183074177    0.08517238238082   -1.31493147405309
C         6.97418667099463    1.55084708981758   -0.33327802468203
H         7.76525629159084    1.88622625612664    0.31938425571560
C        -1.30423449285535    8.48090098077958    0.07597511560165
H        -1.68858725861594    8.29285893849093   -0.91412327912469
C         5.70649327273695    2.10939425344491   -0.29319615952444
C        -0.28499823782029    7.71444531928651    0.61708029873505
C         0.25860228060314    6.00453621917672   -1.15205054983774
H         1.14364979381030    5.36153082253644   -1.32942566417905
H         0.22743779971307    6.77630070527865   -1.92636479689411
C         5.81068393491978    3.86117119833117    1.51450204247773
H         6.18204186235113    4.81342638116610    1.10916545508027
H         6.66249413510736    3.27700336816474    1.87877289189412
C         4.89992959921732    4.10932066588777    2.62633436227340
C        -1.00542723449345    5.14262568534653   -1.18550731933417
H        -1.88647041964442    5.78383674066027   -1.11312583069261
H        -1.00181514643389    4.48569841630361   -0.31129407453072
C         4.25179018158138    4.20406006609514    3.63607423635507
C        -1.09357982718934    4.28599722759616   -2.44763042759766
H        -0.22738643550444    3.62375614473193   -2.50313315405454
H        -1.98283522813847    3.65763299306733   -2.36835275566621
C         3.51023787472750    4.28141502531053    4.87551728285260
H         2.45865373519865    4.05622318642577    4.70115903387612
H         3.60497248326395    5.27389608867822    5.31599013909087
H         3.91082110606160    3.54338810811099    5.57045314748316
C        -1.17254071147761    5.10449518654934   -3.73048039676045
H        -1.34312946952700    4.44778483692078   -4.58000202842060
H        -0.24565678477591    5.64339575404741   -3.91009905304379
H        -1.99072992534210    5.81985766831175   -3.68087621960685
C         2.28735800044234    2.26118294829508   -1.49642897402579
H         1.56776285687813    2.88078367779083   -0.93286331904155
H         1.97646880510762    1.21437449511980   -1.41216194164773
C         2.04218004904188    6.91763446981256    3.29594993789657
H         2.84799777017511    6.20529801596247    3.02859678826656
H         1.43805552642303    6.48185771380744    4.10147011083164
C         2.64378019080366    8.22224563127936    3.74309647606713
C         2.29535240463641    2.70084980868303   -2.93766234330380
C         2.58706518959336    8.60057416069923    5.07770314109351
H         2.09921921833557    7.95787033567590    5.79824269017992
C         2.78842693306463    3.95692532190800   -3.26604669239638
H         3.18754547695926    4.59574306164224   -2.48827670494561
C         3.14884783168249    9.79608715718637    5.48979957989716
H         3.10031902531891   10.08085119421000    6.53061593497654
C         2.77547842461811    4.39613435379242   -4.57612615573924
H         3.16337656140828    5.37455392375981   -4.81679094671759
C         2.26245937376157    3.58116387132618   -5.57140717354442
H         2.24798497169549    3.92211437526895   -6.59584660903633
C         3.76645378711877   10.62554780178309    4.56948921213640
H         4.20201824178195   11.55981479446666    4.89108259985235
C         3.82597057186407   10.25304294146629    3.23719766781329
H         4.31025088000453   10.89273034934048    2.51498932865452
C         1.76723315327149    2.32876735789783   -5.25101638578738
H         1.36605213126110    1.69066312802312   -6.02454926158900
C         1.78537284985683    1.88758794595531   -3.93923398551346
H         1.39263504522317    0.91123206426314   -3.69089808784400
C         3.27025951977152    9.05588985640291    2.82554050076712
H         3.33004675264940    8.76772024256140    1.78676418770225
N         5.14616781243710    3.10663843883272    0.47126808952263
N         0.43574240006989    6.64561905925829    0.13042036939654
N         1.22590483013127    7.05845859680046    2.11373080954524
N         3.57718436530750    2.42103013976740   -0.86383059395508
Pd        2.62394720112724    4.77391865355766    0.70042841278646
I         0.98357758482358    3.18111361901368    1.97593568323147
I         4.17615270719195    6.58394887452460   -0.39577516811753

