70
CSD_code = MIYCAB | q = 0 | S = 0 | Stoichiometry = C33H30NO4PPd | MND = 4
Pd       12.09797610800965    3.75077261644052   18.67036884066491
N        13.91387746153854    3.24533960631235   19.37559141203797
O         7.95856832049876    2.20790311174233   17.92139139941471
O        11.25098878444062    2.61139073678655   20.38772640882190
O         8.94632559809135    6.37957791758074   17.04982938820052
O         7.95066358454090    4.90775162534446   19.86812527730896
C        14.90061809143074    2.93879734951638   18.44309221687803
C         9.01688402504624    5.04137700729473   16.87114987142930
C         9.27827303615231    2.48773416537485   17.95698505466411
C        14.38879654639059    5.00491034926227   17.02984726865242
H        14.54553578505516    5.21129918816080   15.96878821735449
C        14.19983642703964    3.20431208351471   20.67942372288101
C         9.27339641636078    4.84502964509004   19.61416305556643
C        16.18896113913687    3.35830995952093   16.44648749790290
C        12.86548951410700    5.01217905560581   17.25905201880218
H        12.32634182917925    4.85179009290390   16.31022615551536
C        15.15979322729660    3.73864478700073   17.31708073805199
C        15.54397829120747    3.40338491418724   21.11797848393214
H        16.29543833586993    3.57711091930398   20.36145006066860
C        15.62971845631135    1.75715129888195   18.63807329934722
H        15.39748374031806    1.14411733301525   19.49825463680698
C        14.85835483003451    6.25563915011127   17.82457337439125
H        15.87779724579544    6.18064151089331   18.20124072845898
C        11.86757860973305    2.64248429385338   21.46057698839967
H        11.30956024226218    2.31995152455864   22.36082312686978
C        10.01550788083906    1.33712846246912   17.84185143273262
H        11.09740797735094    1.28248568105308   17.84035189219568
C        16.61387922724627    1.37861741565960   17.75539870874881
H        17.16244175018067    0.46180857492366   17.91435849453418
C         8.41230995200518    4.69160320550370   15.69346128309892
H         8.32297970126782    3.70363303373758   15.28984795874354
C         7.92284704108300    5.89412866260134   15.13680892108685
H         7.38083576099218    6.00575607725294   14.22017737485011
C        13.21915790727729    2.99426920648949   21.71279777489906
C        14.60856200462003    7.45841386255322   16.90740214187572
H        15.08524616969529    7.35044191743711   15.93349214805757
H        14.98783842009858    8.37337049287585   17.36492312211788
C        12.63053939346692    6.41161616687993   17.83547108683082
H        11.61215750983178    6.57786685007999   18.21050018889933
C        16.90087629320722    2.18734941079942   16.67087042254901
H        17.68632827739249    1.90318383049775   15.98551635386235
C        15.88706424141895    3.43911081065449   22.43534213485415
H        16.91327706750213    3.62855606620913   22.71630760980848
C         7.85024769893512    0.87874701737384   17.79364228377474
H         6.85920683110808    0.46951694224559   17.75541491132821
C         8.27891201832028    6.88232648617975   16.00381963032895
H         8.11272096537080    7.94164168526672   15.98828412543124
C        13.76165911082376    6.48049468926517   18.86659028098387
H        13.69266665741672    5.69435856761419   19.62632949682336
H        13.84796363091801    7.45284102516377   19.35143938955014
C        16.57504890486233    4.19633566789308   15.25863653811510
H        15.77476929735672    4.22257232317330   14.51879482521788
H        17.45761134055644    3.77800942103559   14.78032801785361
H        16.80190677701257    5.21831666551546   15.55757098493843
C         9.07775106286684    0.28730642973053   17.73737324252762
H         9.28243505995746   -0.75886608484801   17.63562034404282
C        13.06899939575543    7.48123110611744   16.81456153635859
H        12.71200766792089    7.24027421799082   15.81327429783756
H        12.66969754583225    8.45879029204792   17.08616981601425
C         9.98459731444248    5.41353742492312   20.63910511340998
H        11.06074201065345    5.50168889491702   20.68663598614514
C        13.62699875619082    3.02509779395876   23.06645711652625
H        12.86746461589862    2.86913541791895   23.82075190498521
C        14.92033170656357    3.24697190634799   23.43620935862079
H        15.20434567060044    3.27557709969000   24.47672478783610
C         7.81270406634568    5.50493023787044   21.05848476638593
H         6.81438541099670    5.63458414616982   21.42915517092498
C         9.02576734224435    5.84014155407981   21.58315878357040
H         9.20946575657518    6.32793353615109   22.51854895551238
P         9.96370116340684    4.13926556630208   18.11034004219234

