73
CSD_code = MIYCOP | q = 0 | S = 0 | Stoichiometry = C34H32NO4PPd | MND = 4
Pd        4.42661771394777    7.10308824357587   10.78457311150623
P         5.51915680786582    8.94357062251689   10.11044978525074
O         3.45982106366765    7.12847667391407    8.78677221492463
O         4.22584917763975   11.04132630439251    8.81545217335577
N         3.25582936669123    5.51846901678838   11.11675022218675
O         6.78692943027718    9.31465651845905    7.65662428187009
C         5.17937081430896    7.10584605148397   12.67781892377771
H         6.26448907031454    7.29503658116068   12.61414132742708
C         1.95873840628589    5.54222763298293   10.78146552983015
C         3.77755167186237    4.42674593440682   11.79982824353101
C         6.27851043013908    8.45095240569784    8.56040033649811
C         4.12795742420597    9.99614116936645    9.66182162239280
C         4.89315566615345    5.89018627428944   13.58127843267858
H         5.78973394438945    5.72782559896200   14.18382854014460
C         1.02779962771253    4.81704679539172   11.58217458922046
H         1.42233453348389    4.26071723956393   12.42027698855976
C         6.46132456720974    7.15698829550030    8.14579273777926
H         6.14886614166665    6.27534646110988    8.69030938813884
C         4.57553029516702    4.55323086142142   12.95040892347475
C         2.25416378566398    6.86410882535730    8.65435103536669
C         6.69350870525937   10.18141221506579   10.69009542929573
C         7.11417404691576    7.24332514006883    6.89740428093389
H         7.41899545530139    6.43396238312432    6.26593121148833
C         5.05295842399249    3.38912265718595   13.56579799597901
C         1.41649114525632    6.26599618410215    9.65894577603705
C         6.55897314282225   11.41472294012348   11.27113319255121
H         5.64464027564731   11.94857302292385   11.43552990944094
C         7.28285175647681    8.57499657184772    6.65620968916910
H         7.72747058517251    9.10049616024186    5.83313687742057
O         7.99510166195220    9.82208907940382   10.65889090192773
C         3.51224296690017    3.15361469301641   11.27539654642106
H         2.90754770465799    3.08177863100402   10.38156909258222
C         2.83303279819802    9.84919044006345   10.08856726279718
H         2.47654771377671    9.09129354600944   10.77367720637847
C        -0.31712704645514    4.86172679021762   11.36941342840487
H        -0.98460595498295    4.32821268720533   12.03091245287283
C         4.77237368775043    2.14173275399197   13.02366926663712
H         5.15498877843130    1.25412457518507   13.50652644010199
C         4.43774155736749    8.23538977641236   13.39978363101714
H         4.37712377509207    9.17012628537298   12.82552611014327
C         0.01602893733403    6.28482610735774    9.48369674011626
H        -0.39499362699253    6.87010153886269    8.67580990206691
C        -0.84138934339866    5.61883791527543   10.31343664661642
H        -1.90843486528634    5.67295954414778   10.16101443674349
C         1.65385404265973    7.16164127375833    7.29275261543536
H         1.00628044103981    8.03481850181349    7.35482271677643
H         1.07865650472996    6.32006524557759    6.91705052670689
H         2.46590663596504    7.38612749146073    6.60430841529399
C         2.99753456384746   11.56101353300116    8.69436390566598
H         2.88450100395888   12.40804297645638    8.04587866857727
C         4.01076482422980    2.02155057704904   11.87564531316952
H         3.80364663986119    1.04786961480167   11.45618307049942
C         2.09746718419235   10.87369284147730    9.45379829525323
H         1.04950821338314   11.07331352201793    9.54732075996518
C         3.77735940414784    6.42229668523542   14.52316624795514
H         3.11932154301694    5.64363259456751   14.90758453682871
C         3.11137614466244    7.54052693694716   13.72121640459499
H         2.58507414696957    7.19639415098865   12.82591089752287
H         2.44115196684955    8.14507225593999   14.33227783754802
C         5.03682653655666    8.43892089842160   14.80562379427698
H         6.12620587846812    8.44416786312928   14.77279819967382
H         4.71007633718503    9.38868273275036   15.23045770211295
C         5.86288331143264    3.43502356108728   14.83252763442112
H         6.82708395146940    3.91537129971836   14.66479991446006
H         6.05092089873602    2.42512728807737   15.18957178874413
H         5.33781479193016    3.98059252247595   15.61475778957688
C         4.48171084736511    7.24473224753898   15.60825076526908
H         5.26420999280194    6.68335642891849   16.11799840053571
H         3.76478056666768    7.57693489041743   16.36066515584184
C         8.69534211352870   10.82940359852491   11.19422827580330
H         9.76169611275044   10.72196118190083   11.23308855540120
C         7.86853309074145   11.83797423601379   11.58854773561197
H         8.15314009099715   12.76429390538418   12.04421124133152

