47
CSD_code = MIYKOV | q = 0 | S = 0 | Stoichiometry = C16H12Cl2N16Zn | MND = 6
Zn        0.00091927034595    0.00022324531140   -0.00066717925813
Cl       -1.72329591806919   -0.82013218221869   -1.36360258418790
N        -1.19085616304593    1.61336071149700    0.58961440188314
N        -0.99334445070068    2.17523917310484    1.77348150891036
N        -1.43598209282323    3.34988502301840    1.79973929727234
N        -1.96502748605950    3.60464985296957    0.60132009771947
H        -2.36354729595347    4.50072725065504    0.36844425852235
N         0.44230131674816    1.30239805857710   -1.66478072987916
N         1.57567899627406    0.85457879610738   -2.19250052372822
N         1.41806595011177    0.50848176344075   -3.39129105634220
N         0.14036646881618    0.73076993593958   -3.70805108005437
H        -0.23402794528573    0.44615076761505   -4.59734009310081
C        -2.42479646825652    2.35733558070992   -1.47837369009525
C        -3.72098190456076    2.86684224126927   -1.57961861814207
H        -4.17234255551652    3.33844216332029   -0.71851443733638
C        -4.45997410351560    2.73632765275945   -2.73804459681627
H        -5.46418128798779    3.12765447668865   -2.78459749991339
C        -3.90471716667267    2.08479202760106   -3.82635935315079
H        -4.47290771822053    1.96313589662954   -4.73561674268512
C        -2.62124783307627    1.58584492848869   -3.74867124661783
H        -2.21680855485339    1.07331618746611   -4.60652968255112
C        -1.85526665127379    1.70092423107659   -2.58450540475154
C        -1.80922114596704    2.49782626031151   -0.16977833730907
C        -0.48649124377324    1.21969307052452   -2.61018265426804
Cl        1.72523099204610    0.81975349247153    1.36242637118726
N         1.19263559467172   -1.61312714261924   -0.59018375214839
N         0.99586537526353   -2.17505501346506   -1.77413419910463
N         1.43899562007652   -3.34952607020846   -1.80022897255719
N         1.96719120304841   -3.60426479736771   -0.60143567524192
H         2.36580158750459   -4.50024893213390   -0.36834959707937
N        -0.44203439702948   -1.30215169478257    1.66282460673008
N        -1.57584991756075   -0.85419299438671    2.18952643106677
N        -1.41925861522629   -0.50810441132534    3.38845562877059
N        -0.14191451495734   -0.73065074899903    3.70641263597943
H         0.23167978353469   -0.44623760047073    4.59611495046541
C         2.42512529861101   -2.35716186549327    1.47876912898459
C         3.72119310756164   -2.86673762797960    1.58117136454623
H         4.17341820842459   -3.33811456279854    0.72039873619423
C         4.45904537608862   -2.73659895054643    2.74037911416499
H         5.46318776684762   -3.12798630454317    2.78781505122767
C         3.90275683934092   -2.08538532918639    3.82835106330700
H         4.47002136058331   -1.96409451939968    4.73823760967038
C         2.61940103615172   -1.58631940487745    3.74950587052527
H         2.21408721056767   -1.07411986474453    4.60714993374087
C         1.85459384794429   -1.70098894342832    2.58453623022396
C         1.81066675616651   -2.49750070314607    0.16961117995455
C         0.48584646365645   -1.21965312343286    2.60907223527221

