82
CSD_code = MIYQUG | q = 0 | S = 0 | Stoichiometry = C37H33N3NiO8 | MND = 4
Ni      -13.20926368975720    8.08647516613057   18.76310593317119
O       -16.43292301345391   11.99881945303143   20.52111868246682
O       -10.06144372100016   11.13173086969802   14.07542183490972
H       -10.56126627459666   11.12233747556759   13.25020055493666
O       -14.83739253125609    8.05380497689949   17.71485879020251
O       -16.57062745258375    9.32980285259695   17.13340503992287
N       -14.81291267283129   10.19981895738060   18.31406540001285
C       -13.40374862964105   10.01006773747183   18.49736359542509
H       -13.06907034235370   10.59932290680822   19.36578592895431
C       -15.36067747410416   11.53899404814700   18.36147313738234
H       -16.39369708708253   11.44334997461196   18.01214287178506
H       -14.80462259579325   12.20680849233070   17.68743108629992
C       -15.33531203792676   12.10419057750283   19.74304934849363
C       -14.34081740005577   12.73475551249421   20.43522502199512
H       -13.36103613257319   12.97339923931063   20.07383850677286
C       -14.86967602257440   13.03539796570747   21.71356823472176
H       -14.37044135723645   13.53247955295339   22.51976159154121
C       -16.14511781323344   12.56721315774954   21.70431267694802
H       -16.91837173066524   12.58805144182079   22.44638373054079
C       -12.55181617301738   10.29745557911161   17.31596539962966
C       -13.04464956646536   10.23452613316751   16.00699722073869
H       -14.07231249622918    9.95393673406494   15.83493104482697
C       -12.23563207612257   10.52371505660619   14.92774932009203
H       -12.63637607174268   10.47202242815664   13.92375363476970
C       -10.90563155230792   10.88091938775564   15.12106505708761
C       -10.40364456432261   10.97431097259677   16.41661989929611
H        -9.37707841020634   11.27667709378747   16.55538290471451
C       -11.21983730661461   10.69638666085058   17.49210861488932
H       -10.83178684155066   10.80535683194495   18.49527709674427
C       -15.48467518232981    9.16008534208493   17.65255466198150
O        -9.22554306858924    6.78412269953339   21.46264362911586
O       -16.92263415294234   10.10324149792643   23.65098325846488
H       -17.66268612707664    9.93249637386085   23.05341022942156
N       -11.83236048380271    8.30058369694537   20.13370770439867
C       -12.04569590432211    8.63143125710975   21.34933891816474
H       -11.21480104910345    8.66002266239742   22.05836862384183
C       -10.49340199912137    7.91951361467119   19.70959656660811
H       -10.56326228416693    6.90899935304629   19.29274559503979
H       -10.20232612756913    8.59217552757438   18.89561886506715
C        -9.43259145028695    7.92186700819161   20.76117860618748
C        -8.57146598921833    8.89115162290951   21.18859496162473
H        -8.50158946394050    9.89333506795653   20.81817267460888
C        -7.78986510232652    8.30518049597913   22.21427017881156
H        -7.00932357019934    8.77390795963380   22.77692449317522
C        -8.23370589295732    7.02591064653232   22.33461822559807
H        -7.93587004751538    6.22005014802918   22.97527195994876
C       -13.32353083159002    9.00719190380424   21.90814613612402
C       -13.37069954474396    9.58867888517623   23.18077326540556
H       -12.45108653561950    9.76203293003985   23.72083506638279
C       -14.56922812709563    9.95402915343143   23.74822038322238
H       -14.61176504493376   10.40748692239554   24.72552072928327
C       -15.76332061154211    9.74195326357216   23.05762108428171
C       -15.73095576400264    9.15279788102678   21.79563328111623
H       -16.65192775555117    8.98270092631398   21.25541718325974
C       -14.52951816762114    8.78718614346476   21.23540563690118
H       -14.52462257737971    8.29669784693462   20.25697810354795
O       -14.69796433947005    5.97501151712908   22.07104179737388
O        -8.68253183272899    6.70818727453798   14.38130281216357
H        -8.70362883744723    7.65840940112905   14.20765530402163
N       -13.23625484264399    6.00140870223340   18.81769015529789
C       -12.63383345691531    5.20091023959383   18.03271341339649
H       -12.84364800374380    4.12586725788714   18.07829754942277
C       -14.20892968068251    5.44345205833423   19.72791878215592
H       -15.16212361625367    5.96187136327089   19.57772709957844
H       -14.36218162862226    4.36837435033545   19.53016795214078
C       -13.77379904918414    5.63751584539385   21.14801950139148
C       -12.54897551324608    5.51473398195477   21.73766275908523
H       -11.62509637212194    5.25536920466684   21.26179086573002
C       -12.74228707039839    5.80502287354472   23.11053851348651
H       -11.99609318206602    5.80755258176300   23.87817085931547
C       -14.06674718027165    6.07371940446023   23.25221683603072
H       -14.65859947098573    6.34128763421975   24.10425940709922
C       -11.63342407105816    5.60027307832916   17.06632969781583
C       -10.76263195926327    4.65401573338732   16.51709455974163
H       -10.84950641922979    3.61636728789894   16.80499635072703
C        -9.78303597145070    5.03310207506489   15.62695336071150
H        -9.10097685166119    4.31320514349965   15.20367009247254
C        -9.65959012914310    6.37187488929424   15.25248501062284
C       -10.54180179746868    7.31706970002885   15.77373274550020
H       -10.46087050805916    8.35111881302961   15.47097154148536
C       -11.51646123254313    6.93313676690475   16.66656706430039
H       -12.24187109064127    7.66528475544442   17.04511378810338

