55
CSD_code = MIYQOB | q = 1 | S = 0 | Stoichiometry = C26H21N4ORuS2(1+) | MND = 6
Ru        2.30562094837736    0.22698850292466    9.08956537075507
S         1.27131722161253   -1.59263268958381    7.88983913543024
S         4.49378362811538   -1.99765438670142    4.33072723528015
O         3.63824039231023    0.17769123681612    7.46799037238113
N         3.67818416513642   -0.92199426701841    9.95081020743038
N         3.46694722877114    1.64071968868265    9.86908792697179
N         0.92134761759133    0.27857852162235   10.49896277495693
N         0.98985559358290    1.40612955565775    8.20786782270072
C         3.51771082195501   -0.76240866697568    6.59475116412469
C         2.42306854172314   -1.69819200462539    6.63055286108337
C         2.25247513161514   -2.70414104055984    5.66623043726985
H         1.38770939139646   -3.34318437741498    5.77824769366544
C         3.09435115446652   -2.92075984775115    4.62280983389858
H         2.92873451532616   -3.70624194934326    3.90491694593846
C         4.48923005068365   -0.84137387663071    5.59271519226255
C         5.62108774261676    0.13299279123268    5.59246181518184
H         5.24403119378290    1.14688541663016    5.45258445413020
H         6.33122100827661   -0.09647821423624    4.80299918230318
H         6.12681444485008    0.11192570053889    6.55864747600143
C         3.66307637695320   -2.25104428377188   10.05482729275051
H         2.72397797412828   -2.73839667379854    9.81910690393021
C         4.76728141633016   -2.99008060691276   10.43255603809132
H         4.70149515287201   -4.06400865042417   10.49237669030952
C         5.95238594532146   -2.32415048441937   10.72257777924839
H         6.83718924481261   -2.86979906162976   11.00880995853588
C         5.97137007229564   -0.94444645116540   10.64433742323867
H         6.87397085750290   -0.40250426833195   10.87325990322619
C         4.81838905303302   -0.25966473621223   10.26114199045953
C         4.69920832096553    1.19470199260873   10.20688531598869
C         5.72516933460894    2.08555024248934   10.52417436931259
H         6.70589703158236    1.71703431110678   10.77610470508152
C         5.47880593171557    3.44459440302596   10.50894793616155
H         6.26175550340838    4.14693374205279   10.74639560560212
C         4.19957198628957    3.88655312561514   10.18936624962770
H         3.96008874682776    4.93705287885840   10.17808952478965
C         3.23281351220313    2.95240473509854    9.87482257218520
H         2.22713305478880    3.26501605636971    9.61672914795702
C         0.99719888313253   -0.29893473856212   11.69960285995720
H         1.94310870209654   -0.76521101101134   11.94877688421924
C        -0.05498909681330   -0.32355441276965   12.59244519132950
H         0.06066512131644   -0.80748636192391   13.54825269658501
C        -1.25594462486502    0.27839869149673   12.23358429536127
H        -2.10053376380756    0.26956121041800   12.90352258650827
C        -1.34268401462270    0.89133004448685   10.99881576442939
H        -2.25840448183556    1.36963171239463   10.69362643073934
C        -0.23953941332542    0.88456094347687   10.14638634386554
C        -0.20263172116889    1.52425805030263    8.83505487031992
C        -1.26124366610247    2.21552818295064    8.24731117197643
H        -2.20966029491080    2.28996731072571    8.75281331254842
C        -1.08664462698387    2.79675685509956    7.00531661943464
H        -1.89610508228579    3.32826734867213    6.53111548655307
C         0.15061999394754    2.68354095374887    6.38157822912451
H         0.32985699661592    3.12721456321747    5.41594463887142
C         1.15535162460842    1.98257068328468    7.01952638450819
H         2.13616915716254    1.86810361015577    6.57244892541172

