53
CSD_code = MIYQIU | q = 0 | S = 0 | Stoichiometry = C24H23ClN2NiO2 | MND = 4
Ni       -0.84215427686173    1.68320385945134    4.10427832097368
Cl       -2.00744068151821    1.85756993083237    5.91840170591757
O        -3.25788590401801   -2.83864579900337    2.73645064124134
O        -1.79042200194874    3.91628309977004    1.08540299467538
N        -1.09766036589771   -0.06123988424274    3.58625774664682
H        -0.58930848189673   -0.70750920796536    4.19119626620912
N        -0.06417572267059    3.45373513406830    3.88889763728532
C        -0.31148045708670    0.60851327424558    2.65911122890830
H        -0.82713969995927    0.87788647913193    1.73595752325674
C         1.11865414181137    0.36821551830063    2.51645650029142
C         1.83736304354565    1.15644501402613    1.60774258688290
H         1.30887380232859    1.91018318056584    1.04089975195319
C         3.19674453794501    0.99806666662033    1.44755743207720
H         3.73095106940786    1.62418189999946    0.74789091056182
C         3.87870910221271    0.03700919363170    2.17772825515807
H         4.94348347164040   -0.08830107917603    2.05352514369168
C         3.18082815927819   -0.76564331008262    3.06363776023112
H         3.70138405572295   -1.52611812004783    3.62725876224411
C         1.82036597776425   -0.60556262693163    3.23550419687646
H         1.30834746437881   -1.25561889229510    3.93265165752234
C        -2.39872711786610   -0.59951540572675    3.21999789488882
H        -3.02283031766809   -0.69040877358106    4.11539725777347
H        -2.88927551259123    0.10645155085275    2.53935307891716
C        -2.26070560295447   -1.94423532372942    2.57403701987832
C        -1.26271257180189   -2.48762520501703    1.81776347958218
H        -0.34376365031197   -2.02188475605577    1.52242976647386
C        -1.68546998970874   -3.80206986479671    1.49602246275097
H        -1.15118471309284   -4.52276582405182    0.91238079949250
C        -2.90325919245928   -3.95597854637230    2.07874152464028
H        -3.59220393936401   -4.77629988117224    2.10009777200832
C        -0.98070210229602    4.43984972927366    3.34335877911485
H        -1.54436422980325    4.85967873915879    4.18558303609923
H        -0.44892919685878    5.24356708950021    2.81783093499764
C         1.15889903005843    3.77866148547536    4.05942848370325
H         1.51433845178536    4.76633358875142    3.75228888728001
C         2.14331480591323    2.89068636532486    4.64559810740526
C         3.50484995315416    3.13119257716069    4.45310268385482
H         3.81789038052893    3.98103794008970    3.86364752661038
C         4.44646488384412    2.27984468459040    4.99614514875240
H         5.49772870868264    2.46659482392170    4.83410138441754
C         4.04555179423717    1.19234429824873    5.75592334147871
H         4.78519889284997    0.53467146792230    6.18776273509299
C         2.69637877646274    0.95471435945745    5.96870501685507
H         2.38691093373176    0.11749384878857    6.57661438485504
C         1.74835771959184    1.79041940202409    5.41336519358610
H         0.68087463445476    1.62737126903983    5.61756354845576
C        -1.93541149249737    3.75828999379217    2.41698905602925
C        -2.97105800399612    2.90285878326015    2.68599199640708
H        -3.34788782208257    2.63517025104824    3.65917882003255
C        -3.49326619516489    2.52336867716796    1.42142796850817
H        -4.32413321833798    1.87314845953285    1.23388025122534
C        -2.73854561483972    3.16904390808001    0.49249139568239
H        -2.77396571575634    3.18203595713568   -0.57890675945215

