54
CSD_code = MIYQUH | q = 1 | S = 0 | Stoichiometry = C26H19N4O2RuS2(1+) | MND = 6
Ru        7.02888628841188   11.04434196991115   -3.78184453169067
S         6.22680431463015    9.88184620811268   -5.73684233534546
S         5.54755563040437   13.69494546461358   -8.64270850304876
O         6.90784293985141   12.68960589200358   -5.08223532691109
O         6.33758905748137   16.02532117490270   -7.20075415996366
N         8.84942733740225   10.49508225671530   -4.32754772823256
N         7.22330584890570    9.41757708883783   -2.67627106051954
N         7.56013839176492   12.33585827333919   -2.35967457792185
N         5.22180220069874   11.67431069496212   -3.21998184127699
C         6.39212666618521   12.55061722593017   -6.23935406819467
C         6.02053357573741   11.23985002355357   -6.74353173731077
C         5.50250479129361   11.04827818266080   -8.03092538555386
H         5.27718710216677   10.03011720110818   -8.31673160000675
C         5.26684445649955   12.04788171255401   -8.92733306672913
H         4.86605485119176   11.83414774169736   -9.90483648892297
C         6.19103466026071   13.69017652875676   -7.03800734276700
C         6.50968760029897   15.01949214774264   -6.55514939493453
C         9.62829806533126   11.16778795267597   -5.17125320526755
H         9.25509425676180   12.13197996252808   -5.49708613303622
C        10.84321535543700   10.68221085776880   -5.61579491518172
H        11.43652989830913   11.26061866213867   -6.30465062366200
C        11.27428502481338    9.44146733759618   -5.16173313244264
H        12.21306035549042    9.02900928011890   -5.49498242881107
C        10.47798252295504    8.74435228522588   -4.27183531250815
H        10.79096646062432    7.78190916296148   -3.90311738575595
C         9.26389589762701    9.29461841705498   -3.86383796702691
C         8.33521208178794    8.68018535050045   -2.91892452798930
C         8.54401767524167    7.45396003216533   -2.29004764901427
H         9.43003774753434    6.88023294005881   -2.50485687493994
C         7.60677380294949    6.97700150316761   -1.39398923680408
H         7.74960830830777    6.02845382627790   -0.90228514504036
C         6.47888482651389    7.74866589162372   -1.14024161092204
H         5.72490499772626    7.41966608709645   -0.44429493060840
C         6.33118456257370    8.95262570414267   -1.79960901722664
H         5.46041430325160    9.57354629187639   -1.62601781689057
C         4.04428601225689   11.20400092315993   -3.62939520175836
H         4.06395947983603   10.25634459590662   -4.15557436988331
C         2.85184066783545   11.86870272551572   -3.41400778682817
H         1.92765938435748   11.44674600119014   -3.77308446839631
C         2.87496681254131   13.08274574999158   -2.73925077842120
H         1.96601793406235   13.63616878168595   -2.56604421506221
C         4.08878982252496   13.56532490885699   -2.28580148358866
H         4.13253033800667   14.49951771351071   -1.75143596355764
C         5.25336072235430   12.83967909435478   -2.53252005681864
C         6.58177780635291   13.21782514899043   -2.05225880472506
C         6.85193014778224   14.35743070674001   -1.29481766958398
H         6.06745792523790   15.06179728579958   -1.07358689487218
C         8.13586210791905   14.58392153190082   -0.83650470957930
H         8.36382645733894   15.46412415386630   -0.25713923302780
C         9.12346035622687   13.65162130763503   -1.13225856161445
H        10.13450737469880   13.78107389015871   -0.78266853464141
C         8.79054382434181   12.55009618231371   -1.89648747795022
H         9.53854332495199   11.80684596328235   -2.14758811763366
H         6.92548764496163   15.03579200276025   -5.53188860960711

