100
CSD_code = MIYRIW | q = 0 | S = 0 | Stoichiometry = C46H42N7P2ReS2 | MND = 6
Re        6.70918754676508    6.37660653347450   18.85076402601755
N         5.93135849114626    5.84823641702816   17.40099287898015
S         8.05121597927953    6.72197394722869   21.10743428825371
C         7.85390027077090    5.05219489863904   20.96771349056321
N         7.17960439083567    4.63907233051250   19.86218502216655
N         7.11712077400998    3.38298110853559   19.57781092460384
C         7.60468031498556    2.47667223690179   20.41505190772946
C         8.10303948214571    2.90739669664945   21.67316983917427
N         8.27526016513144    4.20029998501059   21.89034082349364
C         7.59372339170643    1.09526709800744   19.93779664250231
C         8.60545859764752    0.19962032763931   20.28060635900368
H         9.41746508834640    0.52298300391697   20.91511240968381
C         8.58047174238505   -1.09368469744266   19.79508227837533
H         9.36891643041495   -1.78114113835242   20.06497405142323
C         7.55336330350911   -1.50812510420405   18.96215843890780
H         7.53581467294229   -2.52166460605081   18.58952732262382
C         6.55613617289271   -0.61631794517144   18.60159101679245
H         5.76085936263574   -0.93261190796556   17.94284351593902
C         6.57639375838306    0.67959832237827   19.08050620120991
H         5.81328306153965    1.38891328703075   18.79994943317168
C         8.40309884788666    2.02414771659450   22.79883365049701
C         7.62392834182960    0.90132044387968   23.07254708178980
H         6.78628390147409    0.65947221460687   22.43562354985119
C         7.91146709704579    0.11138951907159   24.16873180679298
H         7.30031493757540   -0.75421607622781   24.37877317890527
C         8.97563801203576    0.42667926248322   24.99910269808565
H         9.19893343220283   -0.19779884713654   25.85155686859438
C         9.74585290270681    1.54832324332985   24.73855147341595
H        10.57025704926797    1.80141842906435   25.38902267287958
C         9.45726732533720    2.34854770753904   23.64986768442821
H        10.04103245733319    3.23105467050327   23.43712274196052
S         6.79194158574902    8.80911767847731   18.28050740276669
C         5.18701942887135    9.11747150306787   17.78842757042329
N         4.20663072808976    8.32853893119073   18.25413359627994
N         2.98402024159223    8.69574295929318   18.04752021302450
C         2.67436527593085    9.73934303211498   17.29426501511733
C         3.72798826061169   10.40378730405830   16.60396462146820
N         4.96916281401307   10.12416751481486   16.94241356084761
C         1.26462542401509   10.12316528877570   17.25047126993023
C         0.28273119928545    9.13417022562575   17.28179955400941
H         0.58825241504132    8.09967145248956   17.31929933247304
C        -1.05440867942596    9.47995024599164   17.24990627581750
H        -1.80939485580641    8.70765512121323   17.26528385232945
C        -1.42757750260192   10.81323027822423   17.19700788254978
H        -2.47291531674285   11.08314746873124   17.16964868567982
C        -0.45637000370360   11.80159851949978   17.18659673954350
H        -0.74443252941948   12.84217985555226   17.15888590399146
C         0.88298769933309   11.46340641525927   17.21422540933183
H         1.63642420691519   12.23773854083342   17.21984875144478
C         3.52613730110470   11.35609490759729   15.51271545527500
C         2.48602048109083   11.20009938107557   14.59828512286700
H         1.82168201949861   10.35240986099443   14.67649947035105
C         2.32292671466023   12.11679285452496   13.57747456602930
H         1.51790841108402   11.98983043733944   12.86880696948845
C         3.18700859752178   13.19402430009319   13.46020217752554
H         3.04870912467299   13.91259898828031   12.66582050646671
C         4.23418858716903   13.34196817046466   14.35558927298494
H         4.91589556957298   14.17392047906219   14.25736073714850
C         4.41051123736799   12.42380745379898   15.37268261688019
H         5.22420372837031   12.51804143333096   16.07512298712293
P         4.71685622597364    6.73663107052033   20.20255152596362
C         4.91722770619342    5.50792789229363   21.55654862575362
C         4.67371536032807    4.17874311057377   21.20818420914998
H         4.36681518497962    3.95379062760355   20.19340459792768
C         4.85947105411090    3.16404795164337   22.12615793394373
H         4.66823168695870    2.13896315115130   21.84002826344027
C         5.30474465482084    3.46094467331877   23.40576120257496
H         5.46640075678943    2.66883598217876   24.12246654171209
C         5.56453373578879    4.77373384481245   23.75385663902720
H         5.93174221614214    5.00715970583026   24.74258051427807
C         5.37349955019302    5.79443494852522   22.83616629745109
H         5.60429440950096    6.80957871456222   23.12431870062095
C         4.59314108900222    8.28503928115054   21.15921803249173
H         3.90628537921210    8.12084098194571   21.99056617939169
H         4.22362964493958    9.09040085819269   20.53132808987002
H         5.58006988684319    8.55591806054918   21.53659796208370
C         3.02322870160646    6.27820714763686   19.69883261989573
H         2.53830389099992    5.72154580345476   20.49926148599801
H         3.10047444606982    5.67072771844708   18.79878289263798
H         2.46690126043041    7.17982497949543   19.46063288736887
P         9.00475742581063    6.36489935766021   18.08805529430425
C         9.97090032675338    4.95222215430372   18.68571859149714
C        10.85325361822751    5.06363568340431   19.75508187087845
H        11.03772296094385    6.02574593532758   20.21134921005129
C        11.48214667133932    3.93553010885916   20.25167921850456
H        12.16016967743744    4.02559086038987   21.08801881713525
C        11.23683684471544    2.69570102702900   19.68611897886329
H        11.72898743122273    1.81768804912693   20.07855227147814
C        10.35165486521841    2.57859423289739   18.62556067588608
H        10.14654212645358    1.60991783194536   18.19425973489730
C         9.70836486385537    3.69905632409161   18.13500886513199
H         8.97841666105209    3.60963575415174   17.34222423002941
C         9.13972679910625    6.26890379467366   16.27194898001052
H        10.18110297617797    6.17928298962428   15.96277055405671
H         8.69700540632811    7.18249501835939   15.87410811264487
H         8.55159350404633    5.42647035991560   15.91319163572973
C        10.00497848201583    7.84052498575625   18.45822693432359
H         9.99134154685720    8.06058515223833   19.52472013725643
H         9.56126647740119    8.68196669660305   17.92537654125707
H        11.02769502892092    7.67307749962662   18.11707434837924

