59
CSD_code = MIYSET | q = 0 | S = 0 | Stoichiometry = C24H22HgN6O4S2 | MND = 6
Hg        3.66832241758445    4.22819707742309    4.97724262185229
S         6.12431129164690    4.84241791197746   -1.69457978232245
S         2.63283305886777    4.16198120278132   -1.58412323798322
N         6.68366327477653    3.40747312911682    0.44335300036744
N         8.16216309485424    3.23580875735290   -1.39137862381939
N         5.30535914972891    2.77173371603479    4.18634220908172
N         1.31863347789941    3.35501385230379    0.54755022508439
N         0.15185488212644    3.34033914537176   -1.50568027862535
N         1.96173379788429    2.61977114406036    4.45396794894542
O         3.68564470533255    3.64555309730125    7.06327830754228
O         5.00348565642405    5.21556051496094    6.31344253267828
O         2.05025300595138    5.58338478318128    4.53158577810105
O         3.46554102949670    5.13373641814926    2.92931737812381
C         4.54947246850149    4.53231916437166    7.26225600527438
C         5.05672411193652    4.78017396307220    8.66217117157574
H         4.47542536486950    5.59253841635408    9.09322995484645
H         6.10000312920874    5.07901937266950    8.62819852220030
H         4.92423156278951    3.88932939863417    9.26843389881338
C         2.43775970985298    5.71605545257469    3.34761341705184
C         1.62939437810903    6.56206479510078    2.39063527367363
H         2.28675679691328    7.26016193231243    1.87961648223103
H         0.85405516165596    7.09604360265938    2.93015406094616
H         1.17828568195011    5.90692280086657    1.64763972193564
C         7.08113672259635    3.71490980643756   -0.78026039830080
C         8.90957480306455    2.40871751908611   -0.69148834099401
H         9.79030444517897    2.03221959613013   -1.19541935736511
C         8.60219084229236    2.03223388651497    0.61197126833062
H         9.24620018933911    1.36717942937124    1.16052364558278
C         7.43097347350888    2.56370966257369    1.15222804446308
C         6.92565703757591    2.25119742911150    2.49778945755155
C         7.45061744899181    1.24560402269049    3.30674846376128
H         8.27576504085308    0.63363789581512    2.97484920579195
C         6.88558818489460    1.02936204710552    4.55231162040252
H         7.26817910696650    0.25927223401023    5.20372850691831
C         5.81451770316219    1.81064956109605    4.95353023818520
H         5.33993820500882    1.66800082052622    5.91516032331296
C         5.84893548010255    2.98681560687697    2.99766128358767
H         5.41307369425167    3.77556763360262    2.39983388296797
C         4.87735425493250    5.32654785141730   -0.44763348800489
H         5.41120793632751    5.53811239635661    0.47773885375268
H         4.43356808418256    6.24129789389962   -0.83794804823087
C         3.82352275726018    4.27299652613600   -0.19384990737705
H         3.25894908774240    4.52693145299958    0.70456603596915
H         4.27834348956173    3.29165318227978   -0.06527704660456
C         1.23064918225753    3.55549487801197   -0.75652905026490
C        -0.90978788691625    2.87347065969450   -0.88069198253614
H        -1.77680342376050    2.69413146455505   -1.50316265768031
C        -0.93381034535653    2.62674554603107    0.48774821849949
H        -1.81060524086559    2.23182209607804    0.97159149274337
C         0.24152049343058    2.90307898398285    1.18555223467111
C         0.40262267568121    2.75343613397373    2.63663784932053
C        -0.65897137993708    2.79162953926630    3.53704025611579
H        -1.67555804022704    2.90685112251933    3.19037354467132
C        -0.38237126608890    2.71333231335748    4.89091850817702
H        -1.17884705867699    2.73593504889384    5.61811579724551
C         0.93819887633443    2.64989705525203    5.30653311156007
H         1.20231525760023    2.62604144705917    6.35589270014641
C         1.69184342006248    2.64215631427642    3.15679676654343
H         2.53449954031854    2.58886129435543    2.48035237948355

