108
CSD_code = MIYTET | q = 0 | S = 0 | Stoichiometry = C42H62OP2Ru | MND = 8
Ru        2.18861058065121    9.19646428511433    4.28367253461302
P         0.31879292932632    9.23213028749357    2.96485792729585
P         2.75795039919456    7.34293878233179    3.06678468855520
O         2.52571364521219    9.65146359373117   -0.71161608783157
C         1.99194331285139    8.76618654695373    6.55264191020762
C         1.35538137187126   10.00712998186235    6.25442748768047
C         2.32768389565247   10.89969081891480    5.70175435534456
C         3.58754566137398   10.21042984598407    5.68493259958522
C         3.37817188269516    8.89414148932928    6.18986885199301
C         1.43357386919709    7.75426981017351    7.51512009173913
H         1.42456754529938    8.18730487259102    8.51973155601232
H         2.04076933305454    6.85237422727465    7.54944300662688
H         0.40963717769960    7.47130570620389    7.27172381097342
C        -0.00692671049265   10.38258692453331    6.75845691449984
H         0.07544079253318   10.69451079541372    7.80341819935205
H        -0.69397952085234    9.53932418805952    6.71552401481336
H        -0.43730324268348   11.20872327147600    6.19573241856632
C         2.18362031502413   12.38275662638303    5.51484265748267
H         2.73833191891742   12.90608620521165    6.29751607239352
H         1.14239311713412   12.69271299741872    5.57379753361607
H         2.57971403987791   12.70048014257351    4.55072759632804
C         4.91208834280847   10.87441965073031    5.45003388590735
H         5.21306895647445   11.41806628452803    6.34967281506476
H         4.84595689587329   11.58430004898916    4.62802331329878
H         5.68846864851393   10.14774214749382    5.21713999621101
C         4.46597056309313    7.95211824104516    6.61991248683495
H         4.79936906161056    8.22381491974857    7.62513846659709
H         5.32738363463431    8.00429100277239    5.95588303145837
H         4.11691368618650    6.92165862711159    6.64825381059914
C         0.62649918212805    8.11467013935428    1.52083753999211
H        -0.30021272596182    7.88656748991218    0.98907305706769
H         1.28958342988815    8.68242230452010    0.85891708228197
C         1.34176098132512    6.85008649419121    1.97480852014152
H         1.68820019396768    6.26811861764758    1.11868568785450
H         0.67414636336488    6.22854628902088    2.57564645828843
C        -0.08277643401247   10.84133028102289    2.08769017940042
H         0.92301838267574   11.26715656035032    1.97382821770937
C        -0.86322625844623   11.77289633035288    3.01000900247759
H        -0.82360490870543   12.79478253193914    2.63446535218506
H        -0.41162300131304   11.76125700626261    4.00026119286371
H        -1.90848904863502   11.48214609051529    3.09366156255593
C        -0.70707862494274   10.75596576963856    0.69680176255747
H        -0.89746880277382   11.76770613598171    0.33734628266010
H        -1.65120714330380   10.22034808047803    0.69217950734107
H        -0.02992337554212   10.27245731541728   -0.00160762082483
C        -1.33344972335258    8.68453208424512    3.68094586597087
H        -1.55760781389801    9.47836383560353    4.40520200386257
C        -1.14038846979814    7.38370077031087    4.45465191350072
H        -1.92271613429412    7.25469824652832    5.20222181364161
H        -0.17098188662604    7.39424041674478    4.95344214326046
H        -1.17435470525980    6.52807523091346    3.78368829383853
C        -2.51463314587700    8.55469697133409    2.72578277509589
H        -3.37580609102273    8.17299725821189    3.27522485899672
H        -2.29872890942607    7.85683221584655    1.92003726568526
H        -2.79440333666894    9.51162349919818    2.29596211174837
C         4.13869716424367    7.63162039180523    1.82341139566868
H         3.96664919644663    8.68640293401532    1.56850414587327
C         5.47228009983844    7.55577932723588    2.56306020004593
H         6.26828803844121    8.00122278155641    1.96720534565567
H         5.75319705280001    6.52882157464145    2.78703837381842
H         5.39016302553457    8.11035362260874    3.49888603844253
C         4.14729822154696    6.85020617914995    0.51223559519509
H         5.08709363048323    7.04740590647477   -0.00332367087084
H         3.34119878580766    7.19057019979112   -0.13251962195582
H         4.06340957321709    5.77710940169388    0.65009311343695
C         3.20058215791879    5.70956374012210    3.88182580365176
H         4.09890175956964    5.94420204147165    4.46720362268613
C         2.08611339526378    5.32994744564171    4.85233660586986
H         2.44164994352848    4.60933099043226    5.58817235666592
H         1.24725079346762    4.88207214653648    4.32391621921977
H         1.73144815318378    6.21665746038163    5.37213422612608
C         3.51001124802972    4.53075621306282    2.96474740299993
H         3.63536010925448    3.63266282272803    3.57054252928673
H         4.42909824855621    4.68248160431516    2.40703598816641
H         2.69522362145128    4.35237093917695    2.26717888429373
C         2.93383338409563   10.32848976767999    2.80382368082569
C         3.37583309093393   11.17887736527331    2.06746160417004
C         3.83158777244059   12.19231549241421    1.10958533583582
C         3.39497890808894   13.52979993264836    1.69685240704236
C         2.27711150371525   14.24009809597491    1.28064961866218
H         1.67506566228442   13.89580050501408    0.45406973486649
C         1.90764708277226   15.41453952918547    1.91556517497415
H         1.03423246263901   15.95112554706278    1.57237954297268
C         2.64545827827908   15.90262017262831    2.97766429292626
H         2.35440179712402   16.81896704845499    3.46981022616393
C         3.76229141500515   15.20322870184705    3.40304699299060
H         4.34961160869478   15.57050045759270    4.23230545326495
C         4.12879922160367   14.03138493175969    2.77059868906213
H         5.00174019254592   13.49310807352214    3.11263423484774
C         5.34273310701030   12.21036981368739    0.95857431879748
C         5.94449324531204   13.19470556339331    0.18275905321699
H         5.33423220416678   13.94517395729293   -0.30150958688656
C         7.31874090695382   13.23408142568560    0.03946492208595
H         7.77403763448677   14.00440249079596   -0.56647847798343
C         8.11264231463460   12.29371769568854    0.67556943251161
H         9.18663759843168   12.32647817940387    0.56415804853363
C         7.52271606343392   11.32017186076526    1.46205754219263
H         8.13605887688249   10.59007465271269    1.97110984878269
C         6.14627019658759   11.27976289850520    1.60399711842729
H         5.67939538661313   10.52977158222059    2.22628389204456
C         3.16001644686244   11.89510444911977   -0.26140426863783
H         2.08017028551157   11.99720542254889   -0.14571608493072
H         3.52279496527647   12.60666660608207   -1.00524460525889
C         3.40328991999897   10.48436683185585   -0.73831713503153
C         4.77686786649296   10.16617889444093   -1.26361489227057
H         4.73152677942889    9.28917910001251   -1.90508609625533
H         5.42510864317991    9.94227582332056   -0.41734747803551
H         5.20598086370643   11.00677912161598   -1.80106587016830

