59
CSD_code = MIYVOG | q = 0 | S = 0 | Stoichiometry = C28H24N2O2S2Zn | MND = 4
Zn        3.55001537806574    4.27262767098891    9.98530582487453
N         3.44149691149038    2.86411777922702    8.38355592959514
S         1.22888514322677    4.49185039065312    9.79024664621554
C         1.11380588890636    3.53705436614889    8.34854774009636
C        -0.12601633711610    3.49434649869871    7.70492249682769
H        -0.93133778946293    4.07367664427040    8.12984893030048
C        -0.32003561966588    2.73986303918686    6.56984701325905
H        -1.28989219268137    2.71782097150241    6.09418868934770
C         0.73566633536092    2.01191949576775    6.03179110249051
H         0.59831493479671    1.43596743372278    5.12905271131410
C         1.96530634335625    2.03633776007810    6.65224971758754
H         2.79704574749722    1.50141505815083    6.21540760018317
C         2.17945374689576    2.78067242163829    7.81700353938179
C         4.27282115316994    1.88185096411239    8.34659375510893
H         3.95537598827956    0.89388657417261    8.00590153069737
C         5.63752977061759    2.01955954919876    8.77899366873315
C         6.33383160015216    0.91517192227405    9.28785436126938
H         5.84393908832782   -0.04612819877695    9.33360841552604
C         7.60931542051312    1.05669695397211    9.77371981824681
H         8.14255882383722    0.22035830657008   10.19684289283291
C         8.25137335992868    2.30142689440038    9.74308992657052
C         7.58821670794453    3.39339501160692    9.18434718047814
H         8.06458946784388    4.35890934387848    9.11993387651369
C         6.29752002942157    3.25005155217731    8.72134498291863
H         5.80477938100562    4.09699980485878    8.26624220533721
O         9.50128063096149    2.33303464176505   10.25216837243322
C        10.19049938853384    3.56234923389995   10.29103829590154
H         9.63350686328219    4.31451230571250   10.85764059476270
H        10.39159569658892    3.93875598733639    9.28297431636757
H        11.13449815574037    3.35278429389429   10.79126058289721
N         4.68717515423624    6.07153125592485    9.81059883882723
S         4.95476625303033    3.69773177828147   11.76500329899905
C         6.04685620912369    5.02078205336679   11.51986433445406
C         7.21940171908628    5.03366040347860   12.28019397650106
H         7.38606537747831    4.21089016374035   12.95834938790583
C         8.13291379878699    6.05807039829588   12.17357342237339
H         9.02843730077496    6.04923431162887   12.77800297255868
C         7.90522863446679    7.10065688288758   11.28181945683053
H         8.62786079982753    7.89550899894139   11.17415616519504
C         6.75351615502366    7.11056034552773   10.52611281482165
H         6.59166381632492    7.90032263901022    9.80579163498190
C         5.80214493541782    6.09086090193420   10.63376052217499
C         4.11073083758200    7.15421988715389    9.41941989257569
H         4.38663031685367    8.11968865326228    9.84921712808035
C         3.06126362023161    7.15098442095142    8.43647918329692
C         2.08503129899784    8.15630791975461    8.44192616451255
H         2.14048581296320    8.94594555775252    9.17652147379266
C         1.03592018046776    8.11663787919492    7.55840227773063
H         0.26211819878190    8.86750292481756    7.57508520130992
C         0.93583177757090    7.08635709140925    6.61442682005702
C         1.93515263396546    6.11527307960691    6.56138507474566
H         1.90355043928860    5.32531292973300    5.82771622333248
C         2.97307371407772    6.14702130901388    7.46827568005315
H         3.75465037340869    5.40432799908218    7.39926441451365
O        -0.13928869999460    7.13525670816329    5.79957060031848
C        -0.32786235898286    6.10323300807831    4.85768442817449
H        -1.27868213570989    6.31924608691143    4.37336125086498
H         0.46782659910017    6.09929052565803    4.10588200142688
H        -0.37680277899225    5.12389921537528    5.34293264153249

