67
CSD_code = MIYVUM | q = 0 | S = 0 | Stoichiometry = C30H30N4S2Zn | MND = 4
Zn       10.46463505176547    6.12807390128305    5.40361952122065
S        11.34523788316974    3.97224160029701    5.13952683615285
S        11.44072862015019    8.14327412907439    6.09677496802590
C        10.07903933917547    3.19446734828443    6.03335358121990
C        10.06298701414427    1.79831828069230    6.04451967234236
H        10.82684722248644    1.28355185855311    5.48200580768247
C         9.11138180480430    1.09580288845158    6.75084140160494
H         9.12697871399696    0.01508969064017    6.75257903996099
C         8.12942998363329    1.77913804531142    7.45766711874394
H         7.36583352791741    1.23777413788875    7.99633481714468
C         8.12839989544437    3.15774997477693    7.46135851875439
H         7.34493891427362    3.69183077228063    7.98110468627854
C         9.09774575298464    3.88972010583499    6.77032858433544
C         8.61276793143153    5.96945342527978    7.72339978610076
H         8.44252201383191    5.49487580531450    8.69297801845780
C         8.38723579333016    7.37760205871712    7.63665874897960
C         8.45574769816333    8.18171603658307    8.78201742080691
H         8.64273242125405    7.71836559822630    9.74030648504612
C         8.35002703877246    9.54649692816746    8.70211322091394
H         8.45087256231508   10.12284117472654    9.60653780923403
C         8.13446988769634   10.19168027941202    7.46813517102896
C         7.97970507532936    9.37396132311024    6.33194713129480
H         7.76189066265026    9.81068912036833    5.37152465952058
C         8.12043449080509    8.01294165699768    6.41499568065929
H         7.97629398410809    7.41344856618092    5.52770174680086
C         8.21224469067095   12.36861583063605    8.55351264943752
H         7.45694194954438   12.12546566295866    9.30592757514052
H         8.09214472385739   13.41474239110750    8.28346175588939
H         9.20415878686398   12.24049470181246    8.99807147546843
C         7.92058147432086   12.18808560432620    6.09399476726755
H         8.70167445578307   11.85269147310093    5.40621594080355
H         8.01117734211450   13.26470628711556    6.21440058431873
H         6.94430708740619   11.97568131578064    5.64670743786774
C        10.83138046295876    9.06242275450529    4.75837356227646
C        11.02866775088748   10.44450543428427    4.78350185501048
H        11.53180171604661   10.86352292183099    5.64157449309067
C        10.60307892734226   11.25050338102625    3.75029304156642
H        10.77557045601427   12.31669007234570    3.78935668240107
C         9.94669607578591   10.69093870544787    2.66099251233899
H         9.58989520672139   11.31678376860352    1.85650714475361
C         9.74375934254985    9.32809246424662    2.61520921015804
H         9.20239867722212    8.89397399981615    1.78596304861133
C        10.18633959192202    8.49012966675988    3.64221571703475
C         9.86902875845119    6.46538863643399    2.51410819555527
H        10.21846113148771    6.91707356480187    1.58238744906985
C         9.42130371683774    5.10934164353632    2.45847651154384
C         9.88218438838153    4.24626925979567    1.45581966583811
H        10.54622101043513    4.63008447747361    0.69445751313474
C         9.55495722512951    2.91467009530807    1.45724039467570
H         9.96288862990732    2.28477498235894    0.68444564476939
C         8.71259877620333    2.36988853074351    2.44675061925592
C         8.17788563101619    3.25902906705924    3.39879384645229
H         7.49211913043526    2.90588705457098    4.15075535265461
C         8.53935230611880    4.58138379997573    3.41252644621344
H         8.10044359712688    5.23986227725006    4.14825193872491
C         9.04918317710014    0.13373044575560    1.55027365307861
H         8.74994752689029    0.33588539976637    0.51714060341031
H         8.76285764379884   -0.88688718369393    1.79112237184443
H        10.13799635591733    0.20780013649322    1.62083330163344
C         7.53951720911554    0.50931355058355    3.48679403853688
H         7.94702056013801    0.68494605625048    4.48723137655610
H         7.42835087821994   -0.56248366692277    3.34306200397102
H         6.54627432388798    0.96354049040996    3.42845727522497
N         9.04127223855418    5.27388506095881    6.72298396818970
N         9.90928161908184    7.13233999966699    3.61921351381999
N         8.05301168521516   11.54594872489086    7.37964931202526
N         8.40764047890928    1.04487645439905    2.46611511807868

