69
CSD_code = MIYVEW | q = 0 | S = 0 | Stoichiometry = C32H32N2S2Zn | MND = 4
Zn        8.80727699340752    2.96713017607213    5.56252095847444
S         7.42157430718904    3.88614674369610    3.91422638353756
N         7.24524597788185    1.49811840396405    5.79779691917993
C         6.45000135832883    2.46611462814317    3.75179743088014
C         5.59843981830607    2.41088936706837    2.64387080659940
C         4.78512322415457    1.32778863151542    2.41696540751320
C         4.79444280057149    0.25890278745887    3.30732389325881
C         5.60923048427092    0.30007467661188    4.41394035249428
C         6.45263131368652    1.38934451312388    4.66777900845092
C         7.34454599722865    0.60592752948667    6.71328064178185
C         8.08888220756205    0.84019726080837    7.93855349476473
C         8.98203127718284   -0.14752902867676    8.38979117463750
C         9.71319250269535    0.07014234586307    9.54160670999712
C         9.56929228935721    1.23843158504533   10.27943071504525
C         8.64193109400725    2.17652315324458    9.85571402070029
C         7.89533115839989    2.00480848535525    8.69918395714713
C         9.16831852067745   -1.41986638194407    7.61713074669302
C        10.36353024235613    1.45944759915999   11.52791755104943
C         6.85857217019168    3.03507524069211    8.36169511228540
H         5.60188794926541    3.25212374153196    1.96863136826202
H         4.13689128185025    1.30822240625863    1.55354069637323
H         4.15566382477745   -0.59588608250980    3.14128754283063
H         5.58294094658748   -0.52955471068887    5.10511984517991
H         6.86593163429942   -0.37170189689509    6.62066301742045
H        10.41830250874093   -0.68036783165167    9.86915916198080
H         8.49839424917908    3.07711570221107   10.43494587309440
H         8.26529831583959   -2.03078615399819    7.66102544551062
H         9.99020296285175   -1.99782401613085    8.03190799077939
H         9.38525006130106   -1.21311709940329    6.57082215085451
H        10.60107640504058    2.51329791063194   11.64952685959671
H        11.28696058955416    0.88655816181142   11.50488762330590
H         9.78662987001306    1.14185142824628   12.39739233859805
H         7.31252078919422    3.87827263784056    7.83805043221657
H         6.41584616488495    3.42201773752044    9.27784132943480
H         6.06885843302800    2.62954448191447    7.73453565532512
S        10.19293312857321    3.88617101797562    7.21082813627521
N        10.36937560588154    1.49824226150459    5.32717401576757
C        11.16472255135862    2.46626898163805    7.37311047384401
C        12.01604368817890    2.41088243939687    8.48122010925906
C        12.82928012244847    1.32773287198951    8.70817157514882
C        12.82013949851630    0.25896693099116    7.81767049771152
C        12.00545265918208    0.30021421636291    6.71098309370196
C        11.16206579545319    1.38950171670431    6.45713506998911
C        10.27009657935197    0.60606825801790    4.41166442298625
C         9.52577608775882    0.84034033027586    3.18637276522384
C         8.63256039339085   -0.14735405184224    2.73518177150399
C         7.90141438232453    0.07027295989858    1.58336417637878
C         8.04538701036794    1.23850520729083    0.84545554290483
C         8.97280067925817    2.17655591049821    1.26911253466819
C         9.71938675137431    2.00488207344014    2.42567270759166
C         8.44624496329184   -1.41964197203134    3.50793828828249
C         7.25117768501363    1.45943399465316   -0.40306212430307
C        10.75612868294981    3.03516272822286    2.76318323715661
H        12.01272183235501    3.25218404477332    9.15638874921497
H        13.47770101170521    1.30826920981821    9.57145285272143
H        13.45900129345138   -0.59577214597829    7.98364255197676
H        12.03173300585287   -0.52941427650987    6.01979387401620
H        10.74883741503056   -0.37145648824019    4.50422083252963
H         7.19629581144733   -0.68024607365576    1.25584409417385
H         9.11641420792825    3.07709268541738    0.68980825518585
H         9.34921749020281   -2.03068277917078    3.46388537087743
H         7.62420277295682   -1.99753855107893    3.09332585652431
H         8.22954540359464   -1.21282402420495    4.55430218011902
H         7.01420891639331    2.51336342365155   -0.52508389445866
H         6.32742651361227    0.88707175390886   -0.37970254413247
H         7.82779976696882    1.14113800136494   -1.27246747990471
H        10.30218192045094    3.87828328259657    3.28694353479856
H        11.19878661268466    3.42219804776096    1.84704793332924
H        11.54589003682419    2.62959388117454    3.39025892367802

