40
CSD_code = MIYWIA | q = 0 | S = 0 | Stoichiometry = C19H14N3O3Re | MND = 6
Re       -2.49781072523088    7.92109869061951   13.11453821216067
N        -4.18482320702018    8.39062779775279   11.84850539935318
N        -3.76750352593956    6.16955764966287   13.22666260162904
N        -1.81528630951559    6.88147672256101   11.38510205209280
H        -2.53671082017393    6.37924357059943   10.86397757629300
C        -1.46625350110731    9.52662590906709   12.71956681086802
O        -0.90631049755794   10.48951812194379   12.44117478723178
C        -1.05744727366935    7.22777451109060   14.23110351035846
O        -0.24613909650821    6.76056370306671   14.89485654854697
C        -3.37704452661400    8.76781794413756   14.64161860518065
O        -3.93866588539315    9.25110270111132   15.51841037011266
C        -3.48749114703257    5.06836082933743   13.91734487777233
H        -2.62728039573976    5.11918819361694   14.57229978744530
C        -4.22837858011700    3.90571579218889   13.82829096770093
H        -3.95493759812664    3.04333136496712   14.41342707086052
C        -5.31824419340091    3.87708082971482   12.96433670026985
H        -5.91340018225879    2.98376186554865   12.85357307412284
C        -5.62390508839974    5.01478033195230   12.24921917011049
H        -6.45878013079739    5.01133323881800   11.56790802785336
C        -4.83996671113611    6.16367974781054   12.40144272268347
C        -5.10544702186282    7.41143169685332   11.69131319868557
C        -6.24345091905054    7.61340660745430   10.90264455659868
H        -6.98355134456315    6.83627787657281   10.80540583602023
C        -6.42247638495272    8.81528243183979   10.25290339682079
H        -7.29429689732546    8.98213484600951    9.63927259536918
C        -5.45778253597130    9.80553884423632   10.40664636701455
H        -5.55031317387826   10.75869987875108    9.91290088971155
C        -4.36847630210765    9.54587607781819   11.21564747846270
H        -3.60651787643407   10.30006082237432   11.36428723157028
C        -0.60956874987892    6.65943525981913   10.82485926144316
C        -0.48030930252337    5.83872158998623    9.68449710684238
H        -1.36955344295387    5.37956286668278    9.26648773111034
C         0.74505386787735    5.62044070315542    9.09698950929506
H         0.81023841563993    4.98809756579722    8.22174757202864
C         1.89091155624053    6.20165163813346    9.61830171515133
H         2.85089847326703    6.02660741461659    9.15648148765308
C         1.78650344522325    7.00937158477883   10.74307049395591
H         2.67344582662818    7.46634186595192   11.15889359346320
C         0.56806478142556    7.23670062840496   11.33916354981079
H         0.49530698093870    7.86552028520167   12.21772755634664

