52
CSD_code = MIYWUM | q = 0 | S = 0 | Stoichiometry = C27H18N2O3PRe | MND = 6
Re        2.61213988359592    3.53717727102775    1.43058760480826
P         0.91185822479038    4.96568636900851    2.80995652722172
N         2.02297745518199    1.80893769908184    2.52973034540692
N         0.79867638946739    2.96056875886936    0.47688289240583
C         3.73522627725454    2.47847430571877    0.23080136144809
O         4.39473884626969    1.85009209559587   -0.46463275423166
C         4.07091272297496    3.96139876243801    2.65227020694728
O         4.87461573394101    4.16150572675570    3.44810228687056
C         2.88926814211808    5.16454344786027    0.38963453954962
O         2.98439436335305    6.13417590563859   -0.21836230065135
C         2.63645881197450    1.24573838430964    3.56428339092674
H         3.57320111304453    1.69135109301190    3.87359337680014
C         2.14209108743005    0.13575968645387    4.23637404079541
H         2.69952553696317   -0.26879622874175    5.06594441285531
C         0.94829648616094   -0.43087470243969    3.83805000990938
H         0.53753365539928   -1.29068321150009    4.34472561000022
C         0.26875784019563    0.13423370807655    2.75459414255934
C        -0.97304235808569   -0.35943954143126    2.26138115958850
H        -1.40258216362941   -1.22155421058104    2.74979991074803
C        -1.60300420282438    0.23454958857137    1.22093352995218
H        -2.54855858243066   -0.14125592353188    0.85835654288534
C        -1.04919647022264    1.37718545363078    0.57454924478690
C        -1.67610693694441    2.04752564946033   -0.48067035463617
H        -2.62653127972969    1.69788973632668   -0.85447855306159
C        -1.05972344890960    3.16181557634418   -1.01582813420057
H        -1.51568881930259    3.71432045505779   -1.82175919100461
C         0.16548372928015    3.57991536778056   -0.51356545106043
H         0.65701747618393    4.44849524831802   -0.93259400174373
C         0.84730188715721    1.25860296970428    2.12772946607044
C         0.18923953808869    1.87981305808371    1.03100493903231
C         1.78912545425083    5.94385077948481    4.05439463967866
C         1.23798376510763    6.17803501049704    5.31528680223017
H         0.31672174273364    5.68783010513013    5.60031574413599
C         1.85977549318204    7.03433452866012    6.20327507322675
H         1.42878220134464    7.19212555954352    7.18222302940527
C         3.02242993670030    7.69520352615616    5.84318092883948
H         3.50826961316237    8.35950703671569    6.54274255247814
C         3.55052657525028    7.50872081489391    4.57513107115034
H         4.44667965558793    8.03450457769772    4.27898803891337
C         2.93710491936831    6.64916028023488    3.68708459304839
H         3.34870715144065    6.50663744542896    2.69454456271333
C         0.05598555080859    3.71884186391984    3.81720958504833
C         0.58971488926282    3.15412931527854    4.97805786694388
H         1.55619255890566    3.48489516727718    5.33563535474107
C        -0.10346002055804    2.17452944715756    5.65843831716340
H         0.32052450203736    1.74319217872228    6.55475065513616
C        -1.33410266896411    1.73189900708563    5.19430892762480
H        -1.87119286793389    0.96410536845668    5.73207863405871
C        -1.87445034682110    2.28433560522325    4.04588707599651
H        -2.83713062289652    1.95081136569566    3.68397098744765
C        -1.18408706647007    3.26748059541762    3.36229878767626
H        -1.61268135425016    3.71471792244002    2.47360197132457

