69
CSD_code = MIYWAT | q = 0 | S = 0 | Stoichiometry = C32H32CdN2S2 | MND = 4
Cd       -0.48484462302018    6.77993104917410    4.06814292604422
S         0.33369586227951    4.97299081741183    5.57690671405529
S        -2.57303343516339    7.50647602005546    2.91760713478866
N         1.71227891983925    6.50707315189859    3.32699968327772
N        -0.26928086583659    9.10432860458646    4.12399260353847
C         2.01617111604995    5.31873179605353    5.38701051944398
C         2.88034615618119    4.79424796176714    6.35555995750741
H         2.44379563119080    4.21461934181796    7.15447149391454
C         4.23598665760241    5.00655739356142    6.30247351584248
H         4.87931599586521    4.58948654047209    7.06338850393092
C         4.77991705837299    5.76457282334975    5.26975205941933
H         5.84350735217931    5.94817213399509    5.22921375468870
C         3.95674091799905    6.27141187057590    4.29215768518061
H         4.39231081782514    6.85483258990732    3.49373529469156
C         2.57296651018040    6.05526832939571    4.31084737630189
C         2.05785827698324    7.02262053230571    2.20895687012846
H         3.10484912637123    7.19757179085695    1.93945797183363
C         1.06261112428898    7.40962212212489    1.21229670713629
C         0.05174247769371    6.52825042045814    0.79393407544587
C        -0.85726373489110    6.96008002885069   -0.16348182198066
H        -1.63528098100119    6.28085740998298   -0.48207626476170
C        -0.79850552979733    8.22894219648291   -0.71620162381337
C         0.22472724658218    9.07764091343019   -0.31386479142309
H         0.29120102943846   10.06759215008906   -0.74181695796716
C         1.15354182586747    8.68716190621642    0.63221601211672
C        -0.04310244674801    5.09908033879892    1.25488779224884
H        -0.20245813087892    4.45274320899687    0.39147148131763
H        -0.90189650745548    4.96515208316400    1.92268108501284
H         0.85724783707555    4.77105434671986    1.77128417976612
C        -1.78792896896783    8.65645398138864   -1.75416747725069
H        -1.88645826173808    9.73862670852759   -1.77129956449771
H        -2.76163540101008    8.21335858006728   -1.56149868608870
H        -1.45732979183757    8.32828081586604   -2.74045736545210
C         2.23510105315927    9.63792823026740    1.05406820803550
H         2.25381853254119    9.74469516855331    2.13779592173328
H         2.07181944052386   10.61788992762168    0.61320955772143
H         3.21288507982479    9.27700617374676    0.73249176030181
C        -2.00528665599012    9.07633825573082    2.47076529146110
C        -2.71139174377919    9.73712359899509    1.45851673321853
H        -3.55657859858667    9.22659527739383    1.02286794733698
C        -2.34850701020647   10.98888360423938    1.02594678665451
H        -2.91207962826620   11.47539087599364    0.24335204722820
C        -1.25025083923334   11.62810147777768    1.59352371354927
H        -0.95010420106061   12.60671150617225    1.24882349856159
C        -0.55319750468437   11.01171202006800    2.60565695602725
H         0.29525490151993   11.52032346192910    3.04047762868762
C        -0.91204933779644    9.74337520174846    3.07937729441831
C         0.60244834019055    9.62739387669923    4.89944088446783
H         0.96249326517255   10.65389414111899    4.77391973514809
C         1.17106942575157    8.87663870358415    6.01638619576347
C         0.35956698529420    8.21080169766535    6.94987968369398
C         0.96684554720937    7.52387520802461    7.99346722728311
H         0.34017918078533    7.01120041115653    8.70944925920724
C         2.34324417376417    7.47456416678405    8.14092610699067
C         3.13044253972766    8.16187604473703    7.22583867911013
H         4.20565311111138    8.14120910133183    7.33105234071943
C         2.56789077472712    8.86234785311003    6.17561186619470
C        -1.14343396399708    8.28260297145781    6.94046771164957
H        -1.51638581186054    9.05279317044292    6.26778844538676
H        -1.49895271433976    8.50060073777783    7.94761899352346
H        -1.57366308228391    7.31850951533415    6.64663625177178
C         2.96349182877862    6.73624519674070    9.28518676696761
H         3.97086192546313    6.41345835256441    9.03569758200496
H         2.36663629068486    5.86737985399700    9.55042098474529
H         3.02060982216393    7.38626544474301   10.15926293296308
C         3.45099171365110    9.58054068994385    5.19790696691607
H         3.21107068363139    9.29047783191804    4.17575033597983
H         4.49545747748377    9.34670405278536    5.38741639980533
H         3.32135573738900   10.66035623958328    5.28272046028706

