37
CSD_code = MIYXOK | q = 0 | S = 0 | Stoichiometry = C18H7AuClF8NO | MND = 4
Au        7.21615897167818   12.22320151589984   14.87005742025979
C         6.45037365726699   12.02078800414197   12.00363314223467
H         5.46704656631523   11.91072123165107   12.43468336741172
C         6.63605154711786   12.00946214907958   10.63748956040879
H         5.79311879232579   11.88845907677431    9.97768260131096
C         7.92798726161697   12.16077591498530   10.15306687024685
H         8.12113407946971   12.16184775088338    9.09135372460703
C         8.97065617531790   12.31110089116886   11.04597527504262
H         9.97348837365190   12.43106519641121   10.68058584391677
C         8.72557812149483   12.31039018397452   12.42195040269081
C         9.71748175041798   12.45854817243773   13.47771374977760
C         9.20581666047163   12.46132318110267   14.79121102303462
C        10.06311673579334   12.60440648027274   15.86669702749210
H         9.66217802858465   12.60672414027098   16.86824393859643
C        11.42505779208082   12.74340446340539   15.66754662636324
H        12.08925577273523   12.85599087714605   16.51005183754845
C        11.94892673972985   12.73595353621542   14.38538481551329
H        13.01371831805876   12.84199474180928   14.25617678627106
C        11.10590618451597   12.59382453879155   13.29956364148375
C        12.89292583994455   12.61482894407092   11.72411324873100
C         5.18312446560479   11.96120574004784   14.90949454418719
C         4.30454699830373   13.03465821808908   14.88580046113359
C         2.93005296595433   12.89137860074369   15.04107947209691
C         2.39909297789704   11.62084339206076   15.23701775267100
C         3.24631586785865   10.51800317099482   15.26197252782355
C         4.61427435077217   10.71038137269600   15.10159589767847
Cl        7.11457549432300   12.32013691845047   17.08520296571243
F        13.59355663997015   11.60727566166633   12.26153170954288
F        13.50358361810896   13.74326258561889   12.11241959221350
F        13.04735337714414   12.53144406008779   10.40453116054267
F         4.80445854326666   14.26657902702211   14.67274640797560
F         2.12010596553970   13.95474124014395   14.99437637428720
F         1.08136043436890   11.45919750935461   15.38533770493818
F         2.74126133896064    9.29108776214301   15.42912889285938
F         5.42108208785308    9.63366264302814   15.10409284303892
N         7.45574105374152   12.16667891691104   12.86171459257806
O        11.59623645174504   12.57765219044407   11.98057619777562

