29
CSD_code = MIYXAT | q = 0 | S = 0 | Stoichiometry = C16H9MnO3 | MND = 8
Mn        0.55241167990790    7.61234160227892    3.04070737759135
C        -0.69827731965347    8.73042898030591    1.57808022696801
C        -0.90349117792954    8.53915073716604    0.19468367431392
C        -0.10134527883089    9.20902135785329   -0.69100826681136
C         0.91341793248193   10.07866734212532   -0.25359029111849
C         1.13763627252767   10.29985217230388    1.08086454934845
C         0.34357585805732    9.62116615754358    2.02351190487413
C         0.17513400092785    9.80405550492313    3.45602738650049
C         0.75234139641465   10.71806644144912    4.35655365647646
C         0.22368871372839   10.82735972473040    5.61696878521229
C        -0.88759772224943   10.06243280673969    6.01328855778891
C        -1.48531026752026    9.17060522698729    5.16236861166765
C        -1.41345490845170    8.24757916318019    2.73003806818975
C         2.32139343497204    7.83049986832129    3.23040490256527
C         0.34309053545591    6.56132675310254    4.47226313324817
C         0.65684400103995    6.24442433433588    1.89360308415564
C        -0.96559399635976    9.02056092833718    3.85862323278134
O         3.44295122644951    8.03499479895097    3.34408856925130
O         0.15925816684176    5.94138273055382    5.42125365317683
O         0.68419999290987    5.41211005950810    1.10276904809073
H        -1.70098590175480    7.89388230108926   -0.14698793654250
H        -0.25795760314978    9.08622504472239   -1.75225136142894
H         1.51038886877816   10.59582384452544   -0.98972326376558
H         1.89878470642584   10.99315501701266    1.41128412675687
H         1.58808799159427   11.33039367615755    4.04712125502428
H         0.65130567481662   11.52835334628564    6.31800619799553
H        -1.28521951511220   10.20017797061870    7.00768050584269
H        -2.35708933414204    8.60543936500451    5.46223612368484
H        -2.37478742817580    7.75082274388734    2.67993448816194

