29
CSD_code = MIYZEC | q = 0 | S = 0 | Stoichiometry = C12H8AuCl3F3NO | MND = 4
Au        2.70130730272592    4.15287209040275    3.52233331634119
C         2.83739114701685    1.81598362565951    5.36113647962782
H         2.57981486930272    2.58916371001244    6.06882718856919
C         3.07677770276857    0.51728268218471    5.76339857239126
H         3.01469033687586    0.25880234682915    6.80779204533905
C         3.40229850985832   -0.42884451555627    4.80092586990867
H         3.60541911487214   -1.45102736334984    5.08149519337083
C         3.45850386309953   -0.04205681173276    3.47479955271854
H         3.69738463842849   -0.74409997690905    2.69259932925807
C         3.19981304012208    1.28270295565389    3.13947258513003
C         3.23843752154678    1.75873577355797    1.74677342179840
C         4.42891126430892    1.68954567018724    1.01751797477370
C         4.50002804352961    2.20232483287992   -0.26424895020408
H         5.41823304201746    2.17214170701040   -0.82857704652248
C         3.37198383401850    2.77894372114564   -0.82928531483320
H         3.43556549739330    3.18628678773740   -1.82595837024970
C         2.18016901651096    2.83287081600401   -0.13006159902600
H         1.30413175794717    3.27486625096531   -0.57748301042901
C         2.11292337582982    2.32868387885749    1.15741981590719
H         1.18101476063559    2.34666980045207    1.70310515681606
C         6.72991045380452    1.16678737714928    1.20509570197486
Cl        4.94775657216843    4.19637450095004    3.08962594460093
Cl        2.48357508102528    6.26088106628220    2.86972980838476
Cl        0.47313639796051    3.99178510435699    4.00596750976626
F         7.56040757181685    0.64109837424072    2.09875880561383
F         7.15587408440345    2.39844877181002    0.93213069957903
F         6.90069220873526    0.46016828866463    0.06782667823479
N         2.90748950010491    2.18045887814258    4.08455506593858
O         5.49975949121118    1.08704965640220    1.68802757523405

