56
CSD_code = MIZCAA | q = 1 | S = 0 | Stoichiometry = C23H26AuCl2N2O2(1+) | MND = 4
Au       -0.79540898879399   10.81407022795604   16.74981115143977
Cl       -0.50694204211705   10.02760125778537   14.68852365628912
Cl       -2.01459030855870    8.98178179588016   17.10826188510584
C        -4.02665030779006   14.06759848453560   19.43125744123258
H        -4.57675354407181   13.71334655663095   20.29114848739013
C        -2.89620296655897   13.64947416122655   17.36574288526532
H        -2.55739811601966   12.95471515237422   16.60474017898695
C         1.85049223506416   12.59139707337300   19.21952224013775
H         1.85093676981144   12.51076857981625   20.30349072733635
H         2.71336159446875   13.17991260634829   18.91823503494510
H         1.92908410409913   11.59543559470463   18.78822483163822
C         2.65923940007902   12.46073760730340   13.39456305243890
C         0.88059735846469   12.87441894818054   15.09169014823265
H         0.12398586071911   12.71591103397685   14.32355766853046
O         1.15695083688852   14.48063015650473   16.76830983464757
C         0.63807101782559   13.38858776833111   17.25912286173505
C        -0.60430979804635   12.47613540618858   19.23912329609648
N         0.35671186831771   12.46516667768405   16.40336541826694
C        -3.17244502666979   15.90213086757499   18.14067447611345
H        -3.02900308897023   16.96263018697073   18.00335914707274
C         0.55309336541587   13.29557341067949   18.75519987915971
C        -2.07965098120399   11.79208675871371   20.75133826908760
H        -2.92146427566497   12.35238007989632   21.15722953705676
H        -1.70465543134720   11.09236289285585   21.50329313327735
C        -3.65177416156523   11.67655158842751   18.72168506430334
H        -3.78932448484145   11.15467636069373   17.77389588236647
H        -4.49949509553005   11.44247458232925   19.36627295839330
C         4.22971651525818   13.63634681889643   12.00124413808013
H         5.10189307254063   14.26493987875027   11.90687666071861
C        -2.70923720943229   15.00879761362929   17.18843070945701
H        -2.21571775256114   15.37371157447377   16.29944717641906
C         0.46385731409285   14.70080275923690   19.36592731772208
H        -0.45398672344341   15.19429017081577   19.05396051440957
H         1.31003855475217   15.29955597418538   19.04304308735869
H         0.47164619179331   14.63398146087568   20.44952518763585
C         3.77271093360457   13.27834838049179   13.25863486833340
H         4.30527595277606   13.61914863561048   14.13635525048551
N        -1.20369116313846   11.52065673593824   18.61622504180664
C        -2.37988335610411   11.12603867439079   19.39913318221383
H        -2.43235811043382   10.03861775807445   19.45708143103144
C        -3.84322695590837   15.42852245570800   19.25534844357965
H        -4.23042218654888   16.12035169414293   19.98699778735171
C         2.00665988139176   12.00686451020780   12.25455517908177
H         1.14970816527465   11.35694717695105   12.35597425186142
C         2.46236594362837   12.36539257546268   10.99920317677619
H         1.95427677155172   12.00132809315153   10.11962993899218
C         3.57338046166647   13.18327950209069   10.87052281381044
H         3.93136498404215   13.45936309863782    9.89097372847543
C         1.19857084023767   14.35753750986163   15.33768337104546
H         0.45875655330923   15.04339968781460   14.91658780636110
H         2.19231665313062   14.63933250675667   14.98685453527062
C        -3.54130058783837   13.15966923303521   18.49681042686344
C         2.14461129368537   12.06800230725401   14.75491029607095
H         2.90155294230580   12.25449771437649   15.52052266920681
H         1.89682883414276   11.00701822051687   14.76006133233127
O        -1.03086360594486   12.72390146198147   20.44674053123806

