75
CSD_code = MIZJOU | q = 0 | S = 0 | Stoichiometry = C24H40CrN4O4Si2 | MND = 6
Cr        5.71722179333963    7.45710495910516    8.32454887559639
Si        5.01773553749906    9.37772727130265    6.93460796319812
O         5.03164198079867    8.87278395231223   10.90586043080596
O         8.56850046251932    8.26957542402276    7.73469462354631
N         5.69616805087095   10.97627172193810    6.68513052965745
N         4.25385550444684    9.49374364074868    5.35967790873227
C         5.35569684106413    8.37152268393339    9.90621373657786
C         7.47952519226357    7.98322838325753    8.03094127727237
C         5.40433219144242   11.45976517180569    5.42394442512230
H         5.79293640715250   12.39922263274788    5.08383592320146
C         4.61946332066135   10.65322338839139    4.70284382088557
H         4.28959536202901   10.85462281414788    3.70292265378362
C         6.51232916791762   11.81339383207696    7.55971131232467
C         6.54477663741326   11.24593270728552    8.97685364235208
H         5.53688509113895   11.13958861736107    9.36874979592911
H         7.09644248407709   11.92178528117480    9.62630790286765
H         7.03730223729750   10.27777350645337    8.99810782577903
C         5.91641039073297   13.22795018318304    7.63726885816753
H         4.86214264666739   13.16897094953769    7.89761151950924
H         6.01062492884190   13.76310620486032    6.69721608524299
H         6.43172047468958   13.80357355913052    8.40170744910176
C         7.94438552943564   11.86265144621315    7.01250459980905
H         8.36374578260416   10.85983211184483    6.98752607149320
H         8.56890041969555   12.48637487885316    7.64672718520078
H         7.96297470460788   12.26659127453898    6.00358394887716
C         3.36074260188971    8.57289476528631    4.66265687537199
C         2.12303492562337    9.32820431644842    4.15317408031355
H         1.67243096118825    9.88874612236608    4.96892294955107
H         1.39143132084285    8.62090748720053    3.77153268469762
H         2.36721664220150   10.01961024312359    3.35239106882983
C         2.87701188039182    7.47149889627173    5.60297263721673
H         2.38913244839051    7.90002207436277    6.47422629514179
H         3.70376736765499    6.84747561279392    5.93081279369658
H         2.16002951621731    6.83975968572499    5.08363234879596
C         4.11802721280638    7.92986732364815    3.49404563110082
H         4.97432416853709    7.37555448222939    3.87060612093812
H         4.47753119672874    8.68483686891360    2.79958006833117
H         3.46813443766680    7.24509097065351    2.95541648432779
Si        6.41677309216058    5.53407140213107    9.71262137315295
N         5.73691815599059    3.93638036510532    9.96344884274945
C         6.02810468362100    3.45360417618500   11.22501279190660
H         5.63885397574550    2.51463363025451   11.56566530592985
C         6.81294098832370    4.26036269763241   11.94591787350583
N         7.17921666412838    5.41930921784760   11.28848891884872
C         8.07226657750629    6.34028197951670   11.98563992627615
C         9.30983987137084    5.58507480887617   12.49566217313838
H         9.76031976443786    5.02433896999737   11.68000311563639
H        10.04169397435472    6.29213850944568   12.87733901826699
H         9.06540095442708    4.89372401258546   13.29641914059839
C         8.55656305675238    7.44156598342662   11.04549456766423
H         9.04436113062260    7.01287224573162   10.17428247518333
H         7.72999916798948    8.06579612098802   10.71762572275153
H         9.27367729772469    8.07315029756254   11.56488323754895
C         7.31536838394650    6.98376684372931   13.15428215619012
H         6.45919255501142    7.53806310443123   12.77748883636301
H         6.95562742047984    6.22903822296771   13.84887925433285
H         7.96520962754296    7.66863700890111   13.69291978016943
H         7.14212533751137    4.05963377638273   12.94620698592886
C         4.92059196762496    3.09938184542743    9.08908301483561
C         4.88854476924046    3.66676541309422    7.67188387173313
H         5.89648779733797    3.77289667481561    7.28001592782533
H         4.33679948707298    2.99084484028293    7.02258983240737
H         4.39616890063889    4.63500701547270    7.65038537095320
C         5.51666133330123    1.68488707424292    9.01208245223114
H         6.57096123816024    1.74371008144185    8.75176638547966
H         5.42229674628552    1.14996165488165    9.95226591728861
H         5.00129299572265    1.10928102190020    8.24769762793306
C         3.48856994291501    3.05089117232733    9.63640301448706
H         3.06948545906296    4.05384948112886    9.66107168073814
H         2.86400101440378    2.42714441121912    9.00229722884798
H         3.46985128239327    2.64722911898407   10.64543708297412
C         6.07815598008191    6.54188065302396    6.74294492981821
O         6.40174858766073    6.04046057671519    5.74318240286754
C         3.95516762050709    6.92928610048130    8.61727528157324
O         2.86563437858586    6.64429404561188    8.91256807851991

