96
CSD_code = MIZQOE | q = 0 | S = 0 | Stoichiometry = C35H43F12MoN3O2 | MND = 5
Mo        6.28997309445010    3.39469131808088    6.94487908026213
O         4.50649592781493    3.54718325171920    7.81571280807207
F         1.98910271330654    5.06695133236284    7.68042338365394
N         9.49866284738827    2.66578312563016    6.46833463435320
C         8.45847540852194    3.22062541558532    7.11891868200266
O         6.45050166246045    1.78472231369392    8.21778428289328
F         2.84295392732593    4.26893497598489    5.87767947767216
N         8.99182053329026    3.76231644531426    8.23578786467431
C        10.66045166116616    2.85161623232685    7.16659181201137
H        11.60543303218074    2.48569591700609    6.82175442181493
N         6.54791020014986    5.03929621391878    6.41798202774047
F         1.12275444928124    3.34039990742039    6.75971101277145
C        10.34082096781164    3.54774066894166    8.28447471393587
H        10.95683764592088    3.89503647039226    9.08868840979094
F         2.94930814585278    4.15496337290029    9.93325514426547
C         9.44337154628004    2.01085103464230    5.19137052865689
H         8.40519014776223    1.98886962375428    4.85850158776037
H         9.81785609553707    0.99051189049378    5.26868604943476
H        10.04364457611620    2.55657911671490    4.46227622003473
F         1.48048303663162    2.66597794075954    9.43223119826102
C         8.24617113984336    4.50151071568141    9.22049022942072
H         8.08729785196489    5.53048717274487    8.88036522200414
H         8.80018831820627    4.52019577175842   10.15971396559096
H         7.26885925385268    4.02747208430390    9.38438834777098
C         3.26755107081243    3.00947133139134    7.84414156089673
F         3.45620779200198    2.08123926863658   10.03380935413189
F         4.84080869714012   -0.17567322606196    9.52801783726399
C         3.15747263363347    1.59955709373041    7.24438905995379
H         3.34862954681204    1.66042905608747    6.17430093766197
H         2.16893525443492    1.18103691387519    7.41917239511482
H         3.90576350797884    0.96021101278301    7.70407464374615
F         6.56336105246305   -0.86956225135926   10.59168949667443
C         2.29271229685644    3.92914958735192    7.05238843060452
F         5.92531602638738    1.16375299231692   10.83245586809586
C         2.78074434404325    2.98069670930847    9.31641330706701
F         7.88570450994772   -0.07715536775077    6.71645522384005
C         6.97174083610437    0.67196775362935    8.76897932929312
F         5.84810599615553   -0.62950670531115    7.08490530746223
C         8.39223562123634    0.80397671708998    9.36463800866932
H         9.10545264140242    1.04126397503186    8.57975652923173
H         8.68626841904816   -0.13295894865266    9.83288123818629
H         8.39130427916970    1.59118077829695   10.11562716917700
F         7.43890013933518   -1.62524480853122    8.13591728864628
C         6.05620241672673    0.18692158927651    9.93115242708097
C         7.02202670158592   -0.43533485492190    7.68675215254955
C         6.86489682156603    6.34440396600256    6.29044097043056
C         6.02158060860503    7.32652991057590    6.87263973363970
C         6.39963450113340    8.65655067560420    6.85558730434754
H         5.76851429010517    9.39435283295617    7.32590924751379
C         7.56987027136022    9.06328744903895    6.24077346551766
H         7.85204134664229   10.10547459124760    6.23891281876968
C         8.36164737947954    8.12397639571823    5.60881275662236
H         9.25692611316291    8.44926863606343    5.10003996167907
C         8.03504940718251    6.77808614817944    5.61739839940928
C         4.71707341529754    6.90491336218601    7.50263466464514
H         4.47344524299559    5.91075337491510    7.10812365245456
C         4.86612720838027    6.78729786057477    9.02279198225171
H         5.55454174653187    5.97989358103118    9.27305289991455
H         3.90327032304178    6.56086615050060    9.47256070865505
H         5.24294159162751    7.71783116122094    9.44534183522738
C         3.57802358813641    7.86353602969866    7.15211045405788
H         3.69319661836331    8.81764719156497    7.66104922095498
H         2.62945549271263    7.43407178474946    7.46069641641236
H         3.54757758907686    8.04063483494607    6.07942888944053
C         8.93301238734509    5.79886937023698    4.89617932845693
H         8.49678778306638    4.79780996388465    5.01160676218914
C         9.00877133162914    6.12957094943101    3.40256616235141
H         8.01112701838013    6.22155069443540    2.98163699383808
H         9.54428854207784    5.34592086211825    2.87049500741460
H         9.52925751877036    7.07032833393685    3.24076966380410
C        10.34126485227094    5.80761052963704    5.49789825985511
H        10.82916876184484    6.76111966444905    5.31153849733428
H        10.95355108553390    5.02498863569630    5.05379911692960
H        10.30405295287175    5.65606644836008    6.57393212098213
C         5.94975439611381    2.46248619342922    5.26867715239474
H         5.80721985896720    1.39340534311069    5.46840247275839
C         5.65806674109581    2.74095773170804    3.81965179474376
C         5.53180700505756    4.24674615174579    3.58252236516557
H         4.73858072776250    4.63342250559797    4.21843416380146
H         5.28085803169612    4.45251566102563    2.54408848628032
H         6.44857086903861    4.75916828977871    3.85107132145193
C         4.30998755853369    2.10279712169583    3.41788717441272
H         4.27733338216438    1.04144188540332    3.64998225901129
H         4.14978178696107    2.22311385300396    2.34803530446550
H         3.50192401336985    2.60329745088988    3.94534384747415
C         6.75695424436176    2.09653507860415    2.97779818229586
C         7.59854949017630    2.83503919096778    2.15403976411446
H         7.47942620697821    3.90126669497276    2.07162182579065
C         8.59703561612163    2.22023059506329    1.41667905516547
H         9.23242751564515    2.81824547220983    0.77878572303397
C         8.77744840572433    0.85106991292677    1.48231582277351
H         9.55245641052885    0.37165500498926    0.90275118057747
C         7.94276946955984    0.10039322681140    2.29237205522284
H         8.06345820795200   -0.97159292097156    2.34769088114592
C         6.94790176950726    0.71605346941970    3.02832307335551
H         6.31488453709640    0.10360977032384    3.65188012927403

