96
CSD_code = MIZVOG | q = 0 | S = 0 | Stoichiometry = C37H43BF10N2Si2Zr | MND = 13
Zr        1.35633330541938   -4.34507150040506   17.78461698610713
B        -0.23041569049164   -5.94812951957442   18.54881021866215
C        -0.73209622810797   -5.53238723120632   17.17272721318603
H        -1.67214147073184   -5.09174440405167   16.85382045398660
C         0.21478109682961   -5.97857265519567   16.22404513424782
H         0.08572483998855   -5.95210900586931   15.14627329186917
C         1.29870798628905   -6.64266611791024   16.85954021525464
H         2.03243127857563   -7.24509621269176   16.33105931923785
C         1.11808980546820   -6.63658015517784   18.26358273160966
H         1.75515897775695   -7.23878242068836   18.90499148191804
C        -0.78085644247898   -5.74740247559788   19.97901014490069
C        -2.11903256690006   -5.80199217563678   20.40588735398103
C        -2.48823577650601   -5.71870915821105   21.73625577959138
C        -1.51275420265982   -5.58289359526003   22.72705801568773
C        -0.17127711651671   -5.50476233482736   22.34973165692647
C         0.15346599771448   -5.58436548451800   21.01435896877551
F        -3.08432136168900   -5.92639098199807   19.47877671290199
F        -3.78060049451212   -5.76205241188125   22.09368976067563
F        -1.85931524922706   -5.49643438210469   24.02335504699877
F         0.77893705283319   -5.31026475638429   23.28454408335671
F         1.45917270459650   -5.37149965889001   20.61997930730677
C         0.09533582126492   -2.21183540168801   16.99218572554797
Si       -1.63484457104848   -1.61899411965982   17.42515956843654
C        -1.58186270053084    0.18703894863257   18.07278502350626
H        -1.92214647940358    0.26210098152100   19.10095180382413
H        -2.23703424836190    0.81522154543605   17.47878234551484
H        -0.58797652460343    0.61859373484999   18.01045034154221
C        -2.50657624642736   -2.74238134126526   18.71202596486114
H        -3.03223618946784   -3.55589210792425   18.22284932356995
H        -3.24941777308990   -2.18871648217287   19.27913884157736
H        -1.81001648819969   -3.19305917310165   19.41587181759311
C        -2.69564399902278   -1.63469575473351   15.83635652145015
H        -2.23454334743188   -1.05552890508636   15.04230684725812
H        -3.67712326405602   -1.21094870524739   16.02551763271835
H        -2.84762748335704   -2.64266215424195   15.46376843696904
C         0.34657519036853   -3.04778173459517   15.88589147912041
H        -0.41725014851589   -3.43027881928538   15.22588451208346
C         1.74009147569877   -3.14448561675708   15.64536413021358
Si        2.46550995785575   -3.74148117307455   14.01189793901073
C         1.04687929415242   -3.80542059022570   12.72859992925794
H         1.43646700683842   -4.05245407021260   11.74619234225334
H         0.54079707191073   -2.84883494307301   12.64777588319373
H         0.30032766144813   -4.55391812688952   12.97531308868776
C         3.75791321040853   -2.48269403357259   13.39006210142381
H         4.62167403031782   -2.43133774592489   14.04250562708770
H         3.33525967921713   -1.48497062797121   13.32409754030159
H         4.11179395387675   -2.75656981202935   12.40118711770342
C         3.23191190806486   -5.49657073709343   14.11888213476558
H         4.20101521863106   -5.52292818329569   13.63129912091098
H         2.60491850851006   -6.23101961501505   13.62287727082857
H         3.36736226659082   -5.81838463638024   15.14867088439697
C         2.36133761858703   -2.30772553717630   16.62030146973385
H         3.41194482159842   -2.04800220694845   16.62863319883106
C         1.37239298662232   -1.74770479337651   17.43656492476062
H         1.53533605477238   -0.96782038083643   18.16914226378907
N         3.38477371612484   -3.96392338465121   18.86843032955742
C         4.40122753583487   -3.47820791129419   19.82913077554763
C         4.14058143219625   -1.97420711120155   19.98091066501633
H         4.41061117154167   -1.45056902612373   19.06608146929088
H         4.73194214251584   -1.56977341820877   20.79916223131489
H         3.08614032789195   -1.80264737458776   20.17962282069792
C         5.85572162543206   -3.68661551441358   19.40062423680304
H         6.12224731406396   -4.73991666936996   19.38847154413316
H         6.50509936008275   -3.18603983573072   20.11524506818870
H         6.03982250103878   -3.25410416709525   18.42066488925136
C         4.16057039038282   -4.19685843387182   21.16067621469415
H         3.17716862481856   -3.96004263300832   21.55351510229134
H         4.91143778515549   -3.89478755780543   21.88674941325057
H         4.22216501482397   -5.27364583577946   21.02102153206445
C         3.59001636062312   -4.77809252450659   17.91414119665590
C         4.75092419384084   -5.48919122923112   17.44997579434395
C         5.53548151473387   -5.00149827923700   16.39094478743976
C         6.47039445310465   -5.77758312943033   15.73630029990434
C         6.65613545185114   -7.10503973461937   16.12130514462274
C         5.89156709272424   -7.63086665391794   17.16372560846832
C         4.96137966902056   -6.83430321819997   17.80287951957264
F         5.33752743335288   -3.71580345230885   16.02391716347613
F         7.20171748600430   -5.26105496685772   14.74094259603667
F         7.56403897663628   -7.86855623093813   15.49730494228162
F         6.07302262870674   -8.90042384280644   17.54456161092996
F         4.21229327614480   -7.32967886352262   18.80885801790071
C         0.68247470845735   -3.07669792736422   19.64523117144396
N         0.54791374918261   -2.40548952481006   20.58641865648060
C         0.33023479458845   -1.53061330775144   21.67247733770817
C        -1.13433253080044   -1.67365610125708   22.09648305285251
H        -1.79723951756530   -1.40897990005059   21.27677954668660
H        -1.33454068017872   -1.01445608106439   22.93650624589027
H        -1.34808125101953   -2.69574064359780   22.40065991145807
C         0.62471719299149   -0.10294089759687   21.20161122859690
H         1.66890355432727    0.00214337860983   20.91467947563111
H         0.42004215418392    0.59296593367978   22.01046161443059
H        -0.00017216050176    0.15543928200432   20.35138959731750
C         1.26925470814913   -1.92109708934439   22.81667552171339
H         1.09484039967465   -2.94319607862772   23.13756173218998
H         1.09334001325554   -1.26394590785895   23.66385372442923
H         2.30923666775647   -1.82395517978758   22.51494117953019

