59
CSD_code = MIZVOJ | q = 0 | S = 0 | Stoichiometry = C26H27ClN2O2Ru | MND = 9
Ru        4.60500035885000    0.28828363560732    8.33793403730710
Cl        4.40631083949327    1.38953722395724    6.26325830490331
O         5.08976164880525   -4.85484905677609    5.98574345266194
O         3.03765246483358   -5.44770831575719    5.31065864288087
N         1.71247073077069    0.03831877709301    8.11734268614984
N         2.06156333507028    1.98811752837119    8.96379465032458
C         2.69837626252599    0.85940391655242    8.56825122010907
C         2.59630796249436    3.15311485297300    9.42456165924374
C         1.79017449733333    4.18443286729382    9.76540236479734
C         0.37716934044776    4.06554394992906    9.64075152437919
C        -0.16989947775042    2.92295930566232    9.15318506406557
C         0.67803809712625    1.85167074923795    8.78504360067539
C         0.47900902942201    0.60729680976604    8.24736096878355
C         2.14466683975258   -1.15837939766749    7.54880200465718
C         3.55025061788714   -1.25016812989369    7.52180288047243
C         4.07810969693829   -2.39555663862224    6.94954216214526
C         3.25486376306283   -3.41395176271659    6.46646872253898
C         3.90555491836869   -4.61939501794908    5.91036771176288
C         3.59048657741830   -6.63433910165959    4.74603844665903
C         2.45748258301788   -7.46470257062279    4.17285468355809
C         1.86695042604022   -3.28849843109840    6.51913263445858
C         1.30489610186331   -2.14849352934892    7.05645815313432
C         7.18346584335757    2.66484430941140    7.95320794251525
C         6.62440399082676    1.46883597947615    8.65982397077908
C         5.88296724345822    1.58725883410004    9.83355791901495
C         5.29371575554683    0.43738583288451   10.42921651657902
C         5.59923157022211   -0.86715533339856    9.96031665573638
C         6.43220374022530   -0.97405308717263    8.81467965987909
C         6.87750887901687    0.16332573630145    8.14015504286548
C         5.18598478209648   -2.10374824713781   10.72498704878571
C         3.69488999288916   -2.09288942473844   11.06556026629793
C         6.03800097262403   -2.23311834180618   11.99236202537122
H         3.67353590064686    3.18939720450722    9.46719157116185
H         2.21624518655382    5.10671725039038   10.12395130582779
H        -0.24534913652414    4.89890301101440    9.92473967330923
H        -1.23354092688832    2.80300815053999    9.02530378814009
H        -0.42894629708434    0.12536748260309    7.95314812017634
H         5.14451995679223   -2.53602157199766    6.84356508998748
H         4.13183085937209   -7.18058035077243    5.52755038632661
H         4.31182902644588   -6.35419044535056    3.96956726046142
H         1.75223577403645   -7.72763341712184    4.95694897459840
H         2.85636684280504   -8.37438492948397    3.73328662249161
H         1.93146541508998   -6.90006638148754    3.40768592773300
H         1.24409982286761   -4.08063000110202    6.13631993818108
H         0.23214394768964   -2.03056384569975    7.09129764747299
H         7.09376927483419    3.56221974443748    8.56245364613949
H         6.62828795347709    2.81854430743873    7.02407064584251
H         8.23081801586540    2.50844584550523    7.69743603686747
H         5.77077829785460    2.55458573704623   10.31096382713480
H         4.75054108752947    0.55754695225822   11.36176320810388
H         6.75097854485162   -1.95655131518505    8.48419424008268
H         7.51802973817790    0.06228396251705    7.27031204208655
H         5.37736650181345   -2.97439903723306   10.08759595841664
H         3.45981033470019   -1.31325003587400   11.78670884686964
H         3.40428202640686   -3.04948470699873   11.49305058994055
H         3.11130732851594   -1.92178483165815   10.16108800080726
H         7.09610368267968   -2.26900238175239   11.74053173834559
H         5.77968776935136   -3.14463338170740   12.52583765921207
H         5.87083368811358   -1.38666693705468   12.65581463081190

