81
CSD_code = MIZVUM | q = 0 | S = 0 | Stoichiometry = C32H34BF10NSi2Zr | MND = 12
Zr        5.46057632970187    1.66959951344374   11.37484063944125
C         5.59048615537747    0.36794638896957    9.29664221812177
C         5.52227086340206    1.71937287301465    8.86783365817599
C         6.71022417648616    2.39974560125121    9.22631172308243
C         7.53024350364520    1.44590702991126    9.89569984005051
C         6.86549204467775    0.21427316988370    9.92074112483721
Si        4.44666861581482   -0.98811834254677    8.68209611583647
C         4.84662556657307   -2.68998747350959    9.45161165405384
C         2.61522689557237   -0.51233887389640    8.99688390895071
C         4.67622271280106   -1.13555501048190    6.78711343889792
Si        7.34282256318941    3.93766491402753    8.35349539146542
C         8.39957896732424    3.32257905344706    6.87959956690234
C         8.46414886046606    5.04117739901778    9.43812569261066
C         5.87680819351664    4.94425642151153    7.65599909439682
C         5.88194070145208    3.86514960820120   11.53904378082306
C         7.04606311186090    4.00828069544847   12.27674192249782
F         7.70778629334059    2.81030945308200   12.50544105061322
C         7.55035031420166    5.20240439123255   12.76584564245464
F         8.67044615212852    5.25497185657769   13.49279001352521
C         6.84338920789363    6.37051297553469   12.47676942851966
F         7.28952428015373    7.54925971830051   12.91801214687441
C         5.67518537721426    6.30436950447459   11.71783740584611
F         5.00642682119316    7.42557539050443   11.42526299041807
C         5.23046724553608    5.06232637322209   11.28215936982122
F         4.07512658730133    4.98001048202212   10.56967995193088
B         5.27974694445357    1.33224243162359   13.68474282281889
C         6.34630602191656    0.34456851065714   13.21485481085443
C         5.69290078917331   -0.65003675373663   12.45020386073522
C         4.31133665731798   -0.37631116057815   12.33512672002476
C         3.98428178534984    0.81712400352724   13.02957392171859
C         5.41691586106008    2.65387457176452   14.47986279646043
C         6.34105668041128    2.92674544103688   15.50257942943333
F         7.23965148118147    1.98123835256056   15.82041024766266
C         6.37438820536700    4.13030125167296   16.18576765089688
F         7.26882849065433    4.33726054001735   17.16079178070570
C         5.46977913911107    5.14587141649023   15.86421778201615
F         5.49321364924152    6.31433184279900   16.52147342121597
C         4.55475064273078    4.93283488155352   14.83408051455627
F         3.71473959349019    5.91163490008637   14.45415945099858
C         4.54547811286633    3.71314310055464   14.19226301196249
F         3.71573494964907    3.53769740291624   13.10199562849506
N         3.36775297776815    2.15903971837895   10.63824005891709
C         2.35660759258991    2.70156703333426   10.54298123577468
C         1.07516486749891    3.34602086276091   10.43460580421223
C         1.05317124726987    4.16245338291393    9.13450414235409
C         0.90184120561840    4.26480295609549   11.65262862425670
C        -0.00769336019831    2.25625377032340   10.41637803789222
H         4.73827779375199    2.13620284593774    8.24680356133031
H         8.55492746159088    1.61412800034841   10.20442978643813
H         7.30743022884930   -0.72667227622253   10.21991919508728
H         5.88605372781221   -2.95733772340964    9.28862302151306
H         4.24051983030804   -3.46199198594279    8.98795078322832
H         4.65830910381243   -2.72631815835346   10.51889876996533
H         2.34389257312103    0.36323122876423    8.41384107821585
H         2.41786000511018   -0.28685133112536   10.04137678741660
H         1.95228273596110   -1.31863706769192    8.69920478673343
H         4.48234643587349   -0.19134904191627    6.28769128593981
H         4.00260167754052   -1.87493750784241    6.36565610362198
H         5.68902198187233   -1.43319651443035    6.53464361023934
H         7.84260232091442    2.63398958184357    6.25161600728625
H         9.28895080112320    2.80268926487262    7.22209704656709
H         8.72306942737608    4.15001103306049    6.25571201866798
H         7.90154176161198    5.81640385880255    9.94694584937399
H         9.20776865275692    5.53491161230166    8.82101816356579
H         8.99919959558343    4.46891082534717   10.18923131576308
H         5.44420458352115    4.45349263756485    6.78991980983009
H         6.20715557840097    5.92773349244287    7.33793160686759
H         5.08400304243552    5.08389158540269    8.38188589532118
H         7.40010114599175    0.25129701224194   13.46865124985106
H         6.15199514436037   -1.57425906394180   12.11514700514263
H         3.58692669153994   -1.07928150430063   11.93612070609076
H         2.94249597178470    1.08647223318891   13.19567855757688
H         0.09824098529713    4.67427652877486    9.04711384688948
H         1.18306746077498    3.51692821992793    8.26877214486417
H         1.84776097203933    4.90351094946943    9.14098325684538
H        -0.06464653977554    4.75897752355012   11.59560838397889
H         1.68114978562374    5.02079528463042   11.67453620841475
H         0.95119905055222    3.69464471404219   12.57653479503810
H        -0.98541344059749    2.72440649478025   10.33535000300836
H         0.02125121115363    1.66993826533634   11.33172091629434
H         0.12889716657417    1.58643741322419    9.57056691839758

