52
CSD_code = MIZVAV | q = 0 | S = 0 | Stoichiometry = C23H22ClN3O2Ru | MND = 9
Ru        7.18131997185402    2.25854003662081    3.13203098775433
Cl        9.10982198994737    1.55942028827921    4.28809614475936
O         9.36558831177412    8.44441695022665    3.56471497451285
O         9.36339868677958    7.17855949290948    1.82869868677331
N         6.45466794040295    3.37414946334571    5.71948576406616
N         5.79323114747284    1.32365509824655    5.76571129128054
N         9.10174069531896    7.40290531670193    2.99572462723405
C         6.35540862520856    2.25142853000728    4.95445753071441
C         5.54255597643668    0.00817052327159    5.51353791236504
C         4.97920318620724   -0.77186610411350    6.46396499647857
C         4.64723874458273   -0.22935382193613    7.73754636641680
C         4.91669042290818    1.07143165355807    8.01509423453751
C         5.51842004586559    1.88070650335194    7.02183233052950
C         5.94431100336788    3.18156603804218    6.97126895584642
C         7.10712658187813    4.44762952244042    5.12489044561398
C         7.57232926704689    4.12612541938098    3.83042439608865
C         8.25931095381303    5.12514577040129    3.16103968020571
C         8.42704032657995    6.38125299406615    3.73967114120003
C         7.95392661501896    6.67134138586250    5.01743536327308
C         7.29328118900280    5.68841104699831    5.72318195621538
C         8.51059693450565   -0.67824950301009    1.69288715789780
C         7.60566034535760    0.51018898317401    1.59777824492371
C         6.25850741280148    0.43927357415936    1.94925230537888
C         5.44747299432084    1.60678498220735    1.92476142607200
C         5.93061231666938    2.82121706762905    1.37165970156676
C         7.28210022107013    2.85184978699316    0.93711244885258
C         8.11859491450035    1.74791437183056    1.10640043731916
C         5.01551505910208    3.99715824306149    1.11795704711012
C         4.21621972880659    4.37560053687311    2.36619720616022
C         4.08329195929312    3.68075205913316   -0.05642311147346
H         5.84297414538914   -0.34836035622895    4.54101716183600
H         4.78789392331313   -1.81292091106400    6.26356127641648
H         4.19420494138277   -0.86986927484810    8.47704899815822
H         4.69792735856813    1.51347664955024    8.97346823518092
H         5.92369214812391    3.93872651798856    7.72572525863502
H         8.69811841403877    4.96038490696247    2.18753348084283
H         8.11386317139000    7.65451687416151    5.43035508735267
H         6.92867667756556    5.88340963363646    6.71966958700076
H         9.10570956043207   -0.78456648047646    0.78677736402112
H         7.94624232838098   -1.59341600938006    1.86102777907420
H         9.19723875158393   -0.53457367933575    2.53157258226555
H         5.81694020707422   -0.51452695022132    2.21627172884186
H         4.39398983056313    1.51261267051308    2.17007085563109
H         7.65363841835248    3.73714117856583    0.43243892702943
H         9.14593570378927    1.78746911028672    0.76026896554188
H         5.63726330884304    4.85684819072992    0.84382647347292
H         3.67680812975868    5.30373944898156    2.19477013230011
H         4.89166613858600    4.51366871069437    3.21083024995521
H         3.49242637047366    3.60462374286623    2.62031700463892
H         3.45520014817868    4.54026235986689   -0.27662872954916
H         3.43983466403907    2.83556106297679    0.17967386789437
H         4.65877209227941    3.43716639406047   -0.94718693621490

