54
CSD_code = MIZVID | q = 0 | S = 0 | Stoichiometry = C24H25ClN2ORu | MND = 9
Ru        6.88609816184629    7.49601048105104   -2.67301448232076
Cl        6.76548405202008    5.14144558594461   -2.77048083303964
O         1.42284649784130    7.40709971018258   -1.99504623161541
N         5.77251582217829    7.43242408985623   -5.36336354228093
N         7.90397331257184    7.27899190841332   -5.62534388356205
C         6.94408336452999    7.41450765225035   -4.67962389676589
C         9.25029047673896    7.14590087209072   -5.46656527097831
C        10.05433146821747    7.01719836178144   -6.54726819367379
C         9.50306099394553    7.01236557955129   -7.85874775558517
C         8.15989875904132    7.11488864801039   -8.03278531655633
C         7.32257739899770    7.23935455941770   -6.90074181887522
C         5.96824387152992    7.33783561090400   -6.70802243375476
C         4.61980694860226    7.47028214073168   -4.57616831169628
C         4.91493912718905    7.46228819902982   -3.20296513187072
C         3.84196958322147    7.42474036492210   -2.32388856404752
C         2.53047875484153    7.43332611404375   -2.79226619316009
C         1.59581772193610    7.27184192110934   -0.60695846594766
C         2.27652747411683    7.47812906312930   -4.16535287640422
C         3.32125101677008    7.48512309035500   -5.06367021202682
C         9.01686663552585    5.98629736762208   -0.33943037563346
C         8.38001676364339    7.22217080892986   -0.89541315811328
C         9.02254877951156    7.99427754686672   -1.87018586142345
C         8.36436524079454    9.11491894817501   -2.43761404374756
C         7.13326583751196    9.59077777595132   -1.91097830620141
C         6.52499697312477    8.82475884819732   -0.88646035220280
C         7.11228364296898    7.64389160079615   -0.40896356184525
C         6.54501690483932   10.91365146694192   -2.34643192340248
C         7.47472312535484   12.06415490637356   -1.94782995945141
C         6.26281039386757   10.93040128515208   -3.84983450785772
H         9.60408084356313    7.12811567630844   -4.44786754649716
H        11.11828114968726    6.90802225829809   -6.41682452172468
H        10.16432417012467    6.91282416543601   -8.70462893983722
H         7.70339335982296    7.09653321665146   -9.00922310485324
H         5.17278831350300    7.33576293984681   -7.42255423888709
H         4.03255935141798    7.36507071779121   -1.26232186127147
H         2.14559946607225    6.35888346488460   -0.35739926923207
H         0.59192520137745    7.21398775998887   -0.18819512614851
H         2.11421457567394    8.13713553452607   -0.17909679228810
H         1.25161656148535    7.48525081417160   -4.49876845530383
H         3.12509871567559    7.49111660539424   -6.12521041019889
H         8.56278348893487    5.11275804389290   -0.81645467742506
H         8.85036697703014    5.91031201561680    0.73408709290367
H        10.08627037464750    5.96892406918898   -0.54052451867057
H        10.03286865424302    7.74661596747171   -2.17552003472942
H         8.89837002993968    9.71733249306283   -3.16708143961838
H         5.61719752644033    9.19807194554571   -0.42236298812999
H         6.65234670284598    7.09827155230522    0.40784825877388
H         5.59018551107732   11.04808506704248   -1.82532118034142
H         8.42507818300428   11.99444036147591   -2.47307922229982
H         7.67097221938262   12.04393241959698   -0.87705386866977
H         7.01617866073631   13.01841094164842   -2.19635479636050
H         5.60083986698926   10.10459531552584   -4.10873084259956
H         7.18334541047152   10.83071071944313   -4.42114952169078
H         5.78382558257712   11.86528142710266   -4.13169653085907

