65
CSD_code = MIZWEA | q = 1 | S = 0 | Stoichiometry = C33H25N6Ru(1+) | MND = 6
Ru        7.65591113881872   10.11966838414000    9.37454180420862
N         7.25787545927552   11.40917584453704    6.81320938188223
N         9.20139203066510   12.12517998390902    7.38944604941434
N         6.93403976452832    8.83569600934469   10.71704618323860
N         8.22255229026775    8.41787490624846    8.53759968280256
N         9.28437677981055   10.41657159854807   10.59668089979171
N         7.10079386604410   11.78102752938549   10.32368638410279
C         8.19172207063647   11.31554724151022    7.79071768021596
C         7.64912295837859   12.24686021654001    5.81483000886663
C         8.89058014391053   12.71954973319912    6.16010075058726
C         9.81560897166088   13.60482294286812    5.56210152307923
C        10.99007750755752   13.86159247713918    6.19398755701401
C        11.27759400102966   13.24005612072930    7.44073568353704
C        10.39020139053117   12.39269873526860    8.00959538074103
C         6.06561952936204   10.67585802655213    6.96711594626562
C         5.98716892391881    9.96765129362807    8.17897497780756
C         4.81868881586616    9.23762673260993    8.37621912995965
C         3.79993333439603    9.21616632498082    7.43341156803189
C         3.91977906959208    9.92571844414078    6.25111497932558
C         5.06302393340555   10.66648641961299    6.00930840798411
C         6.29666347846254    9.14701298936414   11.84771002953109
C         5.78901006755814    8.20286778190748   12.71737994972730
C         5.94334484284853    6.85553046726421   12.41121612014498
C         6.60228755570159    6.51858943168342   11.24511668676917
C         7.08723836412877    7.52577737561277   10.41028033457380
C         7.80273363420132    7.28744118546234    9.16262522911154
C         8.05448377374533    6.02136826795077    8.63503901740411
C         8.75797044222742    5.89640904783682    7.45350115197397
C         9.20550509971737    7.05602158168779    6.82981910023562
C         8.91689723124656    8.27755175348248    7.40106621226874
C         5.97387177010386   12.46843902453897   10.09871056445167
C         5.66018783812136   13.64434309847337   10.74840580324286
C         6.55181006906162   14.15876990620116   11.68407014762814
C         7.71425611060088   13.45667756295271   11.93419858746963
C         7.96652755242379   12.26651097085002   11.25157251010167
C         9.15911750180784   11.45055584229370   11.45997803793135
C        10.10149269815061   11.67561497836782   12.46457442582742
C        11.18706787777823   10.82946590960266   12.58340407491331
C        11.30760713862419    9.77140817665284   11.68859985533688
C        10.33814664672880    9.60766116785041   10.71948105945694
H         7.05940185730044   12.46279008862491    4.94987729565841
H         9.56014909891724   14.05318746679307    4.61617022368499
H        11.71485421769685   14.53236127239069    5.76329733130205
H        12.21293992861195   13.44607959333688    7.93379880608239
H        10.56094720203123   11.89069149565939    8.94944443807915
H         4.68101149449102    8.66828596020262    9.28838257505249
H         2.90718791172339    8.63885215632516    7.62353187907460
H         3.12765385570310    9.90359441211222    5.51920610318988
H         5.16434143055577   11.21997593423925    5.08833639631525
H         6.17845387114539   10.20177213426176   12.06593271321436
H         5.27917465673856    8.51453341104584   13.61429913727158
H         5.55663283021928    6.09142780364703   13.06598750877058
H         6.73658232037176    5.48273894823054   10.98203225608544
H         7.69696941942489    5.14204781766317    9.14427627144216
H         8.95583264166120    4.92591781191724    7.02865857189097
H         9.76634884906022    7.01087310004001    5.91063304074801
H         9.25630669057104    9.19213986719266    6.93024452206058
H         5.29757278627207   12.04338786749510    9.36709691280109
H         4.73591882429947   14.15141405642473   10.52513238037130
H         6.34253730883828   15.08029013385679   12.20252999025512
H         8.42681896081205   13.83134574455809   12.65019479722337
H         9.98058374567026   12.49636454900656   13.15170867096209
H        11.92343678380226   10.98583278390038   13.35518201653806
H        12.13846899053613    9.08735934963389   11.74402946370450
H        10.41049265065278    8.79969075651412   10.00064382126556

