100
CSD_code = MIZWIC | q = 0 | S = 0 | Stoichiometry = C40H54CrN4O | MND = 5
Cr        0.81758711001335    2.58870874671872   10.48946300902950
N         0.95738504784643    2.81021157788951    8.55605723070309
C         0.83763328922550    1.93824854326956    7.55027140802307
H         0.53541025512153    0.93873589692659    7.83506656532569
C         1.11450479736700    2.23075215704648    6.23558961193664
H         1.02019016509290    1.46840060874082    5.47895004500905
C         1.55812266603026    3.52193746663191    5.90347308269081
H         1.81514460105750    3.76466726945883    4.88327291067156
C         1.65374013559240    4.45685882022165    6.89892643261102
H         1.98633200082484    5.46488590558190    6.70095576160942
C         1.32157759536541    4.09938703058746    8.22433447739062
C         1.24662722278287    4.96773688185148    9.30928458407073
H         1.50415410125049    6.01892996370109    9.23259025540066
N         0.72245524758330    4.46308742754059   10.44234997289515
C         0.55380053101789    5.38386692124670   11.48816738564344
C         1.64484326266690    5.73934066369002   12.29637770834406
C         1.45425576430525    6.68292830897485   13.29518611015078
H         2.28569349417048    6.97704872773645   13.91702521577810
C         0.21756095711862    7.26224635623493   13.50267193620927
H         0.09092188659928    8.00434141190103   14.27737334601809
C        -0.85993646783366    6.88769037012243   12.72145524426837
H        -1.82254566816573    7.34195090955181   12.89772398579309
C        -0.71077699366600    5.94748714293730   11.71449004908255
C         3.00076139854105    5.10207476342318   12.09158853361324
H         2.85894866744168    4.19049379793026   11.49243653496464
C         3.64519020706110    4.68818976810720   13.41568376596466
H         3.99926397159333    5.55448640590231   13.96969522236891
H         4.49785199201679    4.03997540511492   13.22357617088805
H         2.93477367191639    4.14606302361950   14.03400208214278
C         3.93585331975056    6.04340861851868   11.32719130248082
H         3.54265727079074    6.26182199029773   10.33754311390152
H         4.91670918565771    5.58571556110098   11.21386577337688
H         4.05201045626324    6.98154750963513   11.86676600468347
C        -1.86645087523722    5.51650525723639   10.84034115989330
H        -1.66305093182636    4.48146243247271   10.53649757109421
C        -3.21330454573953    5.56194464928900   11.56265992514867
H        -3.14705591020875    5.09463175305916   12.54336610594041
H        -3.96693946881084    5.03723379050730   10.97786876815976
H        -3.55208652097142    6.58704131906416   11.69354430662792
C        -1.92127551209219    6.37762714465251    9.57450329887315
H        -2.03383807999714    7.42797241295879    9.83693037899292
H        -2.76428504975698    6.08274301663380    8.95225965916751
H        -1.00857782621684    6.25943784946030    8.99552959281417
N         0.80160935865085    2.41632706463121   12.43055035237689
C         0.01761982487353    2.95892264378270   13.36725944730556
H        -0.81649015618868    3.53990702917608   12.99569893167094
C         0.24231276832518    2.85394689216074   14.71960224271481
H        -0.41875656675571    3.34072962134609   15.41860947626045
C         1.36433972099882    2.13853207046642   15.17061374131048
H         1.58083053505468    2.07271301300705   16.22634334469401
C         2.16832668726978    1.53055634600077   14.24413623918378
H         3.04193187843630    0.96591332294259   14.53388782675417
C         1.86125910815001    1.64956691753710   12.87073439507414
C         2.50322227134548    0.98472260060240   11.83002682067119
H         3.36133422701405    0.34083167867457   11.99270352339797
N         1.92980364481028    1.08166309176331   10.61525238917206
C         2.51901651256884    0.30378467790228    9.60664042668396
C         3.67894787845118    0.75242230527053    8.95614511639048
C         4.25725698066866   -0.05898817293638    7.99097069280888
H         5.15666890473138    0.26523673448131    7.49053845415937
C         3.70643148190386   -1.28293342251343    7.66436120131523
H         4.17744492233491   -1.90646017137947    6.91852929600392
C         2.54838181157217   -1.70753311054038    8.28915561079654
H         2.12362158253426   -2.66234346596956    8.02082878835226
C         1.93982286405222   -0.92555913342501    9.25778524596678
C         4.28410248303852    2.09708229608882    9.29103708083638
H         3.52344619966999    2.68734813918898    9.82289802128588
C         4.67772356758491    2.87664607541154    8.03516538269636
H         5.56633062431572    2.45464998252788    7.57141597909038
H         4.89292906493713    3.91095695855695    8.29588468105039
H         3.86868333925468    2.86717659296279    7.30975270736851
C         5.49965431615205    1.93479967320713   10.20801061580815
H         5.21527852928924    1.47753488200153   11.15236358177760
H         5.94341560800233    2.90639002340493   10.41655613302281
H         6.25064576706916    1.30614392003494    9.73310776564422
C         0.67567098357281   -1.36012028401111    9.96373516681186
H         0.13805693953467   -0.44376755272318   10.24034812612930
C        -0.23545258983554   -2.21970916492695    9.08702474698884
H         0.17117454325204   -3.22087946491954    8.96445658199663
H        -0.36054582599617   -1.77691939589629    8.10074865805692
H        -1.21546803242243   -2.31585650903241    9.55131584462007
C         1.02298136682343   -2.11065930141812   11.25327219681500
H         0.11546294882073   -2.43997775812141   11.75597936527765
H         1.57630406801077   -1.46482104883411   11.93070538463660
H         1.63248265145784   -2.98414113137827   11.02915172944013
O        -1.35104093226313    1.82426684629435   10.32431780359091
C        -1.95720195755119    1.01752185461670   11.32946096238530
H        -1.17290574399719    0.87904737320458   12.07628126904182
H        -2.22200494189087    0.03731104309535   10.91216357815878
C        -3.18170253870628    1.64894314613455   11.98560643784495
H        -2.95883511831986    2.66819213556007   12.28685338592902
H        -3.44348619308204    1.07550523108613   12.87033068309259
H        -4.04053601364872    1.65573657799239   11.31857246643669
C        -2.17870544854570    2.10379025864070    9.19937808953491
H        -1.56920426089844    2.75393641933209    8.56855223456891
H        -3.06894233711725    2.66024554010396    9.52040513509528
C        -2.59737809991113    0.86882527460943    8.40694374856087
H        -1.73041155391443    0.24877079090840    8.19902223195593
H        -3.03158665617198    1.18515145360119    7.46275038353535
H        -3.33750741887164    0.27689501217561    8.94025267809610

