85
CSD_code = MIZXID | q = 0 | S = 0 | Stoichiometry = C36H44N4Zn | MND = 4
Zn        1.98471970019216   20.20250211697871    7.43169614083843
N         1.13843408013039   21.12724423114330    5.89610173073845
C         1.51596846650205   22.09025898956507    5.05744543027441
H         2.50437265270114   22.49865628274641    5.22918847794059
C         0.73448844392212   22.55936646060344    4.03042750450154
H         1.09303654678955   23.33939085095347    3.37951940225338
C        -0.54671791734112   21.99644052190637    3.84699540204303
H        -1.17946780801516   22.34473401527078    3.04447726426576
C        -0.96229412402887   21.01451988023387    4.69636028192965
H        -1.93409824579201   20.55465960447096    4.59593661910370
C        -0.11111554658689   20.56888267693294    5.73895177758527
C        -0.48394538035747   19.56083752359842    6.63154549061505
H        -1.47001907572813   19.11629181112879    6.54277975560169
N         0.32642223907824   19.17970755966433    7.61842588952444
C        -0.02410005729422   18.08783210871723    8.41395476695475
C        -0.06823724222058   18.25039959017111    9.81014137861883
C        -0.40418334746200   17.16934396152055   10.60875668895206
H        -0.44560505316445   17.29042637378091   11.68082976351019
C        -0.70244039554354   15.93897952346811   10.05466235920521
H        -0.97560879230283   15.10777494836974   10.68766969046890
C        -0.63767474899481   15.77722186633286    8.68444616201652
H        -0.85148056511535   14.80844108206973    8.25830861943510
C        -0.29527541908678   16.82838664613210    7.84577242503080
C         0.21181297556841   19.59119035476747   10.44941997460758
H         0.42073097298968   20.31719601827829    9.65666688023139
C        -1.00651198656079   20.09392335051583   11.22685948869146
H        -1.87661925029876   20.14296674537217   10.57560436908673
H        -0.81302758198998   21.08911130257892   11.62221175948827
H        -1.23934473768323   19.43485528956450   12.05966608010236
C         1.44264545130237   19.51454969400725   11.35410807906058
H         1.27487733514396   18.83334026493213   12.18500553597529
H         1.67777836219439   20.49852671983484   11.75561318338245
H         2.30217335250485   19.16188948566103   10.78825285667565
C        -0.15164462096353   16.56033179912798    6.36388443110316
H         0.17548697300125   17.47695288407672    5.86511725655132
C         0.92460277255300   15.50103632444305    6.11340407860386
H         1.86761480646504   15.80926712834432    6.55785484004786
H         1.07828020323118   15.37228508088210    5.04401927179241
H         0.63975754751328   14.54083096746298    6.53619997931917
C        -1.48467979417376   16.13355016916063    5.74442743464785
H        -1.82805566686619   15.19489669245454    6.17246672387548
H        -1.37258865367110   15.99997431527271    4.67037730314740
H        -2.25112642283786   16.88587982230363    5.92014370480963
N         2.82441290792900   21.43475348545838    8.73839703422868
C         2.44183141824826   22.55209494504172    9.35343333227060
H         1.45247319564220   22.91119193025859    9.09760832956502
C         3.21949171502144   23.23113245054321   10.25888596153419
H         2.85683957366307   24.13008465773575   10.72905537497435
C         4.50203875473714   22.72447471627958   10.55930864505826
H         5.13213353939239   23.23739388224947   11.27033344555924
C         4.92262667176739   21.58624404696500    9.93807313507304
H         5.89575935770034   21.16191556560018   10.13528015486774
C         4.07538551314325   20.92674015755732    9.01216183264800
C         4.45349087283763   19.75422085322266    8.35330263028493
H         5.44049288714263   19.34167954403452    8.53608736763986
N         3.64720079043337   19.17128190067739    7.46668614315896
C         4.00283863592611   17.93799454069766    6.91862954112525
C         4.04946571742183   17.80433648364285    5.51943964181764
C         4.38897566407316   16.58061857033138    4.96573453284169
H         4.43100687371068   16.47399124700060    3.89216373745543
C         4.69044456989611   15.49496965924510    5.76589152147591
H         4.96722506739932   14.55040105210021    5.32161233140273
C         4.62451602717476   15.62423501104957    7.13949619978021
H         4.84175499391337   14.76748014215422    7.75966984601776
C         4.27656044847302   16.82655419427892    7.73858019462539
C         3.76873812542976   18.98076804160392    4.61277262733541
H         3.56226908021803   19.85773432032072    5.23530719594511
C         2.53579584125369   18.71664563616050    3.74708656824875
H         2.70133033064924   17.87533114129522    3.07819943879318
H         2.30067367947814   19.59414816000859    3.14756161545579
H         1.67713437952386   18.49228372476446    4.37620526975215
C         4.98572024760690   19.30679497204707    3.74429479344447
H         5.85796767885521   19.48854193021734    4.36862528817866
H         4.79307156400015   20.19781423133695    3.15010056732545
H         5.21465608859889   18.48769316845346    3.06695700373353
C         4.13023475066001   16.87478474426424    9.24346307755071
H         3.79551056264977   17.87346954378692    9.53763973401134
C         5.46404500701751   16.59697486303589    9.94099948131954
H         5.81177272050129   15.58964427953124    9.72512348286170
H         5.35104531274324   16.69724024050064   11.01861463990979
H         6.22772344055982   17.29707628552895    9.60787210880327
C         3.06050371171546   15.88410432592312    9.70946937040267
H         3.35105141711127   14.85873023684558    9.49468689694330
H         2.11571079440571   16.08785343798687    9.21184200212121
H         2.90753962366664   15.97902464546295   10.78255165185175

