106
CSD_code = MIZXAX | q = 0 | S = 0 | Stoichiometry = C39H60Cl2PRhSi3 | MND = 4
Rh        5.85509887365956    3.61945179484859    3.81027561826875
Si        1.11031924064096    2.74837169927660    4.96013964332364
Cl       -0.21739740565928    4.23439815602500    5.45387133980541
P         5.76936462110941    2.18207872763927    5.55523301228514
Si        7.29226653911574    5.07955105877652    4.92293725481555
Si        7.06289850081925    2.06874046741453    2.54694290612647
Cl        5.57112937104586    5.11569578949221    2.20622841708600
C         6.27262606008459    6.71061094864497    5.29460214611717
H         6.30480258893714    7.32079084805029    4.38976075654960
C         4.80615832421457    6.40214065935018    5.57133258671740
H         4.69350415834885    5.78279520208741    6.46033637034141
H         4.38171133712689    5.88003650933545    4.71299348439751
H         4.23802244147984    7.31969368271919    5.72320682159499
C         6.86434702844059    7.52861305000183    6.43840904157483
H         6.31712037460161    8.46451559014483    6.54985706959911
H         7.90790945800662    7.77019982370434    6.25335929627740
H         6.79612963670236    6.98751475817182    7.37937774358076
C         7.63597040404530    4.34836517970512    6.71052588316519
H         8.33487778420060    5.01604928877100    7.20765444235650
H         6.68343059056192    4.41293201894900    7.23686130735452
C         8.13421021655093    2.95655493645574    6.80185023542239
C         7.33275129251596    1.86652432307117    6.42774844870017
C         5.14907413191092    0.53620363716953    5.08481387854803
C         4.00777670017657    0.01363079665154    5.68641499177728
H         3.57361632349726    0.52602548950335    6.53328602356174
C         3.43745684544915   -1.15999910068791    5.22952132201212
H         2.57105376300464   -1.57260466490996    5.72540720693114
C         3.98356669820416   -1.80286558029278    4.13147842617893
H         3.53100529348978   -2.70633311981144    3.75029247145471
C         5.12350326074316   -1.29723314846936    3.53587011470258
H         5.55890154836315   -1.81713635478716    2.69378402954973
C         5.74153149792781   -0.14200572080904    4.00601543040623
C         7.01880398047442    0.31062575593909    3.41587561149738
H         7.35991647613744   -0.42429728532973    2.68904276784032
H         7.76587641199018    0.37229888627125    4.20324397888356
C         6.24553565854020    1.76325044430919    0.79700252475100
H         6.67114806513647    0.83001502414886    0.41207739854186
C         6.54209279415781    2.86767404738880   -0.20822326797916
H         6.11663469495038    2.61927703460883   -1.18039080851534
H         7.61126108250561    3.01701264287638   -0.33019569568245
H         6.10774905847037    3.80587895304135    0.12256552046969
C         4.74056617892005    1.56883729947274    0.93248174001426
H         4.28911532803986    2.46486336872762    1.35598726006423
H         4.51704672748857    0.72226975166146    1.57789428273422
H         4.28330537649563    1.38949000618518   -0.04018604479787
C         8.98203818902769    2.31341265315258    2.27786377452038
H         9.14035981868106    3.31640253270508    1.87702558411662
C         9.76730834513261    2.18084115546417    3.57937330558828
H         9.81367493527558    1.13966578908768    3.88994162732900
H         9.30479841154036    2.74927951775269    4.38060799890092
H        10.79039208320546    2.53058257415760    3.44789201029451
C         9.53897062705448    1.32157730103860    1.26016750359952
H         9.05846737880749    1.42683727133804    0.29268574002704
H         9.40354528254761    0.29873431452184    1.60319348080587
C         4.65005204747708    2.68825623069077    6.92098329364047
C         3.42836431435124    3.32465661699701    6.66449268569079
C         2.71703569817415    3.86350508203678    7.73395397225385
H         1.79475030044288    4.38653638438988    7.53136142013592
C         3.16707935495970    3.73926275606134    9.03374893957585
H         2.59812941352906    4.16834280742540    9.84469370638076
C         4.34386164347800    3.05400267599468    9.29131740631936
H         4.69477809275743    2.93186334037539   10.30506896947891
C         5.08082382282065    2.54490941914680    8.24011413937328
H         6.01160421938098    2.03298283170437    8.43909809176354
C         2.86880164205452    3.45739354274675    5.28765120577983
H         3.56826546277385    3.01792928312927    4.55688917360233
H         2.78018224637634    4.52223473068491    5.05538737586351
C         1.00006307598460    2.45439429018919    3.06663417999654
C         1.57987237209576    3.62647834928418    2.27386309343641
H         2.64460709095189    3.74855479317434    2.46555442589612
H         1.07907035459802    4.55592401713597    2.53533537616900
H         1.45289860620896    3.46136537044497    1.20539985179950
C         1.69152335361688    1.14949366370797    2.67219447774831
H         1.68327443544067    1.02694304243345    1.59088070611094
H         1.19254497367647    0.29151523562987    3.11562003795940
H         2.72656495814853    1.14317717815315    3.00523818626542
C         0.55501388395240    1.17611778933642    5.91356581150532
H         1.22833777302358    0.35653517967677    5.65334212664609
C        -0.85564612399956    0.77006200152257    5.47992060039797
H        -1.16237451469218   -0.13667465750129    5.99919431223692
H        -0.90234213529258    0.58067356095052    4.41060615654755
H        -1.57003771679403    1.55403419313797    5.72022247264235
C         0.58558656384212    1.34099457814484    7.43185302124532
H        -0.04871278290055    2.16889074625429    7.73965464540739
H         1.59315281679843    1.53184108668223    7.79093549410659
H         0.21803616908226    0.43662873771394    7.91493182979761
C         7.78712993689123    0.56723222601787    6.63464311372260
H         7.14147887085018   -0.26553023870398    6.39034778298769
C         9.03986528857377    0.33077580057775    7.16925607580628
C         9.85438758838575    1.40144617978144    7.49689475733144
H        10.83950171836053    1.22864491195902    7.90413703603531
C         9.39584620819958    2.69458789364046    7.32661672609190
H        10.02504673768081    3.52278970406762    7.62166592746176
C         8.94659185152620    5.59317339359918    4.02381913603581
H         9.22544808866844    4.79749460858630    3.33605842307939
C        10.09677445679522    5.77113908974317    5.00882398909492
H        11.00056923164683    6.06568656311896    4.47653111937876
H        10.30155947818022    4.84251091865908    5.53365693569820
H         9.87459131016004    6.54402606837172    5.74089160524654
C         8.75681452958201    6.85292835925667    3.18626085819699
H         8.56270377993594    7.71899574037583    3.81359927518316
H         7.92666640820611    6.72783479408831    2.49719899350017
H         9.65519257798861    7.05486593590648    2.60407822688401
H        10.60741537831012    1.48927972570871    1.12565619402952
H        -0.05538384013491    2.36998065521040    2.78579020218053
H         9.37799458399672   -0.68232297213150    7.32855242270286

