31
CSD_code = MLAMPT | q = 0 | S = 0 | Stoichiometry = C8H16N2O4Pt | MND = 4
Pt        1.14391364246533    2.49497088304172    0.74827745214110
O         1.57900767653779    1.00984072884573   -0.53195538879563
O         2.60781570412461    0.42638618292741   -2.38392535676081
N         0.59334254692435    0.93934284723467    2.02442716628049
C         2.43438613438252    1.21659548299912   -1.48379862658162
C         3.28259390363960    2.49505749292845   -1.37158297445718
C        -0.19595560769852    1.22280045484419    3.22684212454651
C         0.25235619664160    2.49500358721667    3.98154386692774
C        -0.45077449979426    2.49501705733901    5.34365823758778
C         1.76828501663487    2.49495516139401    4.19139930098546
H         0.09306480216006    0.30324170245779    1.40007026074249
H         1.46451881423450    0.46788298802347    2.27140342586483
H         3.76773096266105    2.49509665555998   -0.38705546989919
H         4.03271613763280    2.49507376135333   -2.16139664039387
H        -0.14041386650819    0.37544037976622    3.92092785741684
H        -1.24151486154565    1.34369978890134    2.93346392158927
H        -1.53091689144896    2.49499278034002    5.22107822492312
H        -0.17127347215243    1.61618896728255    5.91820945057731
H         2.30405305056515    2.49501949942048    3.24065325290453
H         2.06800403841814    1.61542871623492    4.75583971599562
O         1.57878014150656    3.98004848936848   -0.53206885371992
N         0.59328186776464    4.05058073452673    2.02438131515435
C         2.43429295671351    3.77341476739345   -1.48383347212704
C        -0.19589131270826    3.76726327486823    3.22690797819051
H        -0.17130692261728    3.37386700300507    5.91819699400024
H         2.06803838285796    3.37438112723514    4.75597567840409
H         0.09296909076272    4.68664258929705    1.40001297258888
H         1.46450288341041    4.52203356390569    2.27122050546831
O         2.60752490718772    4.56359393214442   -2.38402471547578
H        -0.14011971035152    4.61463145134101    3.92096562500224
H        -1.24151171240123    3.64650794880393    2.93368617091896

