89
CSD_code = MOBBOV | q = 1 | S = 0 | Stoichiometry = C40H43N2OP2Pd(1+) | MND = 4
Pd        1.30104378171748    3.16560993569537    4.47199931524054
P         1.22462242179780    5.33165299151690    5.12148321848448
P         0.78221964207011    0.96049799426400    4.29368750110105
O         4.22197563209290    1.16510519061002    1.37751230742253
N         0.00324298767334    3.00615871802173    6.24556449621335
N         4.95745850658202    3.02971147118882    2.36462726188283
C         2.22399710614712    6.83372505808143    4.96517985094002
C         3.10062483946885    7.27441040311966    5.95144185036268
H         3.18029776856186    6.74767011910057    6.89105811190069
C         3.87769244794790    8.39762413130447    5.72844856824298
H         4.55163770921893    8.74283357214080    6.49763705835329
C         3.79615467431242    9.07533973343544    4.52297074011704
H         4.40540633378491    9.94979535631609    4.35489655620732
C         2.93667820421406    8.62834304818088    3.53072338527812
H         2.87672745443681    9.15277280819389    2.58938235150325
C         2.15753608685256    7.50810191362797    3.74665306831975
H         1.48607488392388    7.14771026025478    2.97759723494811
C        -0.43630528717108    5.84925390104800    4.59174199904989
C        -1.14711944610869    5.00413415292565    3.74054652438120
H        -0.67698372943432    4.08267856793989    3.36303547488448
C        -2.43054369906245    5.34293123360667    3.34911473486605
H        -2.98305686035051    4.69378487634899    2.68641382151021
C        -3.00319262419775    6.52174283794991    3.79986837657380
H        -4.00313298700340    6.78575913215212    3.49194930349532
C        -2.29284792015284    7.36919288372111    4.63632066940260
H        -2.73915516677459    8.29113155927977    4.97655757497872
C        -1.01069316133820    7.03733754058782    5.03307898644328
H        -0.44774296912244    7.70167308014735    5.67494268481317
C         0.96853406872495    5.11194242544323    6.94977674673891
H         1.94019255155692    4.86158971831707    7.39417994773269
H         0.59885883820962    6.02797564011682    7.41947814685629
C         0.02462287533262    3.96611657882998    7.17141653046987
C        -0.78668805584611    3.89157796740608    8.29587730325609
H        -0.76839158687096    4.67903238754716    9.03205184484583
C        -1.60540362445213    2.78551701182964    8.45771679074547
H        -2.23583979062029    2.69736376382589    9.32860385170061
C        -1.61034015327593    1.79815641361736    7.48714902737470
H        -2.24367327194610    0.93111504842698    7.58440150297691
C        -0.79616793811713    1.94698796521998    6.36984988988649
C        -0.82226825095515    0.95621913226325    5.24441685277392
H        -1.60660518433615    1.26253843328234    4.53874423544651
H        -1.05770144765976   -0.04592774176782    5.61498546387507
C         1.87911850994270    0.09355969253649    5.45536395040069
C         2.69192810351823    0.87395644414065    6.27494851756832
H         2.66510868788286    1.96588575714690    6.17285854814985
C         3.52618876064737    0.27271272757754    7.19875609124898
H         4.15838975167696    0.87490871029540    7.83450517937983
C         3.55604196451422   -1.10946418196002    7.30273955984173
H         4.21098854277573   -1.58019722505831    8.01965751766748
C         2.75456956647065   -1.88846592322140    6.48340982576982
H         2.78687419700600   -2.96431642094588    6.56282414590342
C         1.91528928425308   -1.29220612710081    5.55902908669845
H         1.29754273979644   -1.89697953787438    4.91010597069423
C         0.51760312043424   -0.21420204296246    2.94378513600992
C         1.60230490617352   -0.42572271902794    2.09333999505716
H         2.52610049240678    0.11797546473123    2.23642885387522
C         1.49475914764659   -1.32238286488246    1.04697671659165
H         2.33983382197522   -1.47435116714315    0.39438174404936
C         0.30937598519091   -2.00892690011667    0.83842318055714
H         0.22374605900297   -2.70832359224433    0.02093161826456
C        -0.77228197220589   -1.79289034659467    1.67684922506249
H        -1.69822190167438   -2.32386914583517    1.51350337573898
C        -0.67653901760737   -0.89637198420503    2.72665724544485
H        -1.53338661677114   -0.74121096545173    3.36528484722649
C         2.55012203642128    3.31847175179584    2.85259038796219
H         2.25302935150348    2.62217721564218    2.06065372477818
H         2.57222463809801    4.33900565867172    2.44580439543112
C         3.92141473658063    2.94505813577542    3.40028320864855
H         3.89538573849491    1.90101593681229    3.76012321070209
C         4.40486331242011    3.91731480546815    4.48863945372958
H         4.22700163104527    3.53070373436347    5.49613238246977
H         3.88670939497684    4.87474231281383    4.37472654149995
C         5.89847308716326    4.13836183735019    4.20947756353350
C         5.93107381376990    4.05060788849670    2.67416469949894
H         5.63400281191721    5.00953456007910    2.23044296965813
H         6.91942480995741    3.78456425622180    2.30302336036966
C         6.38407801720217    5.49061521124156    4.71994178994034
H         6.30091407010685    5.53704445265632    5.80312099999037
H         5.79558231938817    6.30198566522844    4.29575406879778
H         7.42610223959813    5.64462133028215    4.45177190152787
C         6.73356756033237    3.01007190995301    4.81477922350327
H         6.63426363462808    3.00188255856129    5.89778269089744
H         7.78532200544714    3.14386393946211    4.57344696050552
H         6.41212845034475    2.04471593102522    4.43128687907241
C         5.03098912492699    2.07770200069517    1.41272793787955
C         6.14518379905670    2.21910507445355    0.40443890012289
H         7.10451695864026    2.00313963041534    0.87115360598228
H         6.16979440872429    3.22450532798143   -0.00754930506283
H         5.98005225643221    1.50198400758616   -0.39455904441915

