37
CSD_code = MOBFIS | q = 1 | S = 0 | Stoichiometry = C10H18CoN4O4(1+) | MND = 6
Co        4.27205813820951   14.79432559172013    6.93761638038677
O         4.11458313855380   15.10009014941613    8.75875017903765
N         2.28340754628661   15.14990016471443    6.82633269776742
H         1.62203600966274   14.46576143729894    6.46011654648502
H         2.02785602659330   15.29815024651301    7.80699695495898
O         4.12996334265588   14.00696052997101   10.69493596877378
O         7.82700437682001   16.25108735580258    7.02961396672043
O         6.12190935198230   14.82402469006162    7.03520265332618
C         3.20643582671005   17.38805415570083    6.58666369508550
H         3.30726862326521   18.24054313009653    5.90809923548249
H         2.98239715779874   17.76747876023760    7.59009847389709
C         6.65209932589339   16.00021578212901    7.00005980233112
N         4.25863628966950   13.00468270888272    7.40549662711887
C         5.58811408791769   17.10310587758428    6.86139252685369
N         4.47897090588954   14.11050031985548    5.04878298089641
H         3.60488060820708   14.00542936167457    4.53194348147545
H         5.09313958005252   14.68287702876442    4.46947812426843
C         4.21033626804926   14.04408656971774    9.49670983101280
C         5.10594709583760   12.77547358703960    5.19532867740987
H         6.15195516047969   12.93021875934256    5.46590266632478
H         5.05200284335772   12.20157100867402    4.26605606391109
C         2.10470510232897   16.43606276202591    6.11827874275649
H         2.20183497278255   16.26059008619913    5.04394788024139
H         1.11714489664408   16.86613443331272    6.31121469121726
N         4.42619686123761   16.61583083139409    6.65389112903192
C         4.41097190756043   12.03633590812117    6.34116321560962
H         3.41584019754349   11.69259130807776    6.03553129769482
H         5.00253761447515   11.17312505740537    6.65504222680830
C         5.97205730041703   18.51863928079943    6.98312266987994
H         5.50696496611197   19.13648053184753    6.21570928095911
H         7.05670107815209   18.59617227955917    6.93028111395692
H         5.64612511591491   18.89570640759251    7.95441022244962
C         4.60283754372878   11.47642281616465    9.32874900309272
H         4.00766767315066   10.67185990262031    8.90074287932573
H         4.37832794815004   11.59500117192251   10.38797488394272
H         5.65724843219839   11.20736391584935    9.23819688027441
C         4.37343668571170   12.76554609191117    8.65346634923454

