39
CSD_code = MOBJUK | q = 0 | S = 0 | Stoichiometry = C12H18Cl6NiP2 | MND = 4
C         7.08541894561984   -0.20977055140829   10.76420978326219
C         6.18747833709138   -1.12330999393099   10.21811758971713
C         6.34567086731709   -2.49527659820575   10.31371083335644
C         8.38371649092623   -2.10193619901521   11.55376781114195
C         8.18434826204326   -0.72935087615524   11.43244165157844
C         7.46244107389253   -2.98526611354843   10.99301916664959
C         3.69749633330798    2.02859451023144   12.24676718741446
H         3.18063467132258    1.17717331567791   11.80676425690272
H         3.52008558576728    2.90725072943857   11.62966097957926
H         3.32719926675918    2.19963421011042   13.25691502936149
C         6.12837789689418    3.08999210275651   13.28574316703011
H         7.18720861138504    2.93453388482346   13.48686354784246
H         5.58134937903828    3.16033464106603   14.22537048990822
H         6.00752853419768    4.00755823898274   12.71264248026342
C         5.55628077559005    0.32276649306039   13.52454163953285
H         6.59148537947546    0.11494035975129   13.78616288892048
H         5.12135875299791   -0.57806461642764   13.09500376698617
H         5.00459244960287    0.59971887490825   14.42177184344535
C         6.83354995960454    2.02263485353991    7.07152566058902
H         6.20358909854972    1.17136284446469    6.81839340989395
H         7.55768647283662    2.19170868554491    6.27541647659350
H         6.20510038243535    2.90200590187577    7.19848025084642
C         8.82421073247907    0.31544459450974    8.13032695416343
H         9.53301513760281    0.10555940968800    8.92833242545349
H         9.36673568532551    0.59143285280306    7.22724046609611
H         8.24018015953962   -0.58375338173961    7.94205464053764
C         8.88119077319040    3.08384899845487    8.74311044220366
H         9.54924788201354    2.92900525801395    9.58893422015799
H         8.31857342543429    4.00253857192040    8.89956926889690
H         9.46115026012410    3.15172324263088    7.82325479987807
Cl        9.31291231557161    0.37983418490270   12.11854494463107
Cl        9.75717240389890   -2.71586147679370   12.38945486720497
Cl        7.69935079358037   -4.68174098668308   11.13677613545249
Cl        5.20127711350034   -3.57301598802052    9.61676394335760
Cl        4.85683191013714   -0.37968620256045    9.40960986882083
Cl        5.67745836540420    3.39150260403380    9.90690863907830
Ni        6.45548726930639    1.50461185445591   10.38074210311049
P         5.49243763676154    1.68859003729958   12.30213041464824
P         7.71317060949029    1.68373172955914    8.63735595548618

