66
CSD_code = MOBJES | q = 1 | S = 0 | Stoichiometry = C25H30CdN5O5(1+) | MND = 8
Cd        9.82281887836957    3.66009659010316    1.64051268337739
O        10.43529466635884    4.22546141366837    4.06047077627053
O        11.46770836360424    3.43059072264868   -0.23216771764783
O         8.75530665815086    3.72361282500174   -0.20853555149987
O         9.75384417596610    5.46297611235439    0.50819103627106
O         9.58547937940613    5.11985037816336   -1.57426547620358
N         7.91886273178198    4.81258536121763    2.62683703187708
H         7.88636573799221    5.57245739817692    1.94973168939572
N         8.15599411532861    2.04053086946957    2.08366312887402
H         7.84695991463070    1.94891828214100    1.11450176252286
N        10.89757984661361    1.39781336963244    1.80261370179299
H        11.19826793315064    1.41206899404778    2.77831302262379
N        12.12404492776039    4.57492405557951    1.95871027224409
N         9.37833946340574    4.76659035750501   -0.44904968422102
C         6.73300603587617    3.97462728154445    2.44540528735975
H         6.46411691309928    3.97372457207304    1.38507040759996
H         5.87979426304227    4.35577243072079    3.02158942483723
C         7.02994355762815    2.53541748023922    2.86717309963257
H         7.30393857383398    2.50524556485245    3.92460821073457
H         6.13099405161811    1.92031288418395    2.72386787204391
C         8.65307014694162    0.74518595278847    2.52461522718647
H         7.88828115028627   -0.04001281949330    2.43943166026669
H         8.93986467538015    0.82748890262678    3.57962784227370
C         9.86415693983575    0.36928459734314    1.68057605498793
H        10.24071598251766   -0.61639800972219    1.99286273414200
H         9.57470121492906    0.30920487336529    0.62677593584159
C        12.07995927901466    1.05290543008449    0.99591797871766
H        12.44076299490269    0.04667289111104    1.25623707838447
H        12.86379128392833    1.77805820946792    1.23784117957882
C        11.80481781929804    1.10583382846179   -0.48454460377892
C        11.82994959727519   -0.02517662988167   -1.28753455737984
H        12.02175476505548   -0.99077879460068   -0.84298854895766
C        11.62995468644707    0.07774755740604   -2.65421589224311
H        11.65577117370265   -0.80945117533961   -3.26709297326746
C        11.40136224507012    1.31416428019567   -3.23390095961595
H        11.24597935481655    1.39301038302058   -4.29822116563430
C        11.36393936491401    2.45532319245264   -2.45041379101395
H        11.16045676349681    3.42153503533433   -2.88602312316409
C        11.55616139629339    2.34294735876485   -1.08243850707180
C        12.34859515840417    4.51359629073439   -0.45475096848870
H        11.88383373504245    5.27741311278358   -1.09716937441194
H        13.26779341303244    4.16698205938627   -0.94627446089418
C        12.69448767164000    5.11306594601924    0.88496857108276
C        13.61146945897776    6.15672558441213    0.97662424023605
H        14.04599318906000    6.57321066090192    0.08209475279153
C        13.94590950277947    6.64038787703096    2.22718992066224
H        14.64619415924019    7.45434897544392    2.33309550504031
C        13.37323612342997    6.05471465277932    3.34824121713193
H        13.62489780101740    6.39576576402153    4.33964112391571
C        12.46591735422121    5.02323938566242    3.16565608990168
C        11.82194333560184    4.31669224710318    4.33296538945579
H        12.27122584296376    3.31586183486985    4.43185526067543
H        11.99304352739048    4.87357560433886    5.26190770473785
C         9.59402284316668    3.91373257642053    5.10740406581622
C         9.94744795203808    3.07766960464353    6.15700630034941
H        10.93570491349432    2.64749028593315    6.20978678626560
C         9.02569709040811    2.79345784392746    7.15247167385652
H         9.30698883794920    2.14379783044775    7.96623308220787
C         7.75809876189541    3.34369873974608    7.10711486298646
H         7.04459708301997    3.12717565831306    7.88570786191775
C         7.41167424033795    4.18813489210233    6.06498045942868
H         6.42885129944269    4.63444339223508    6.04177046799188
C         8.31723168323772    4.48637988291270    5.05790009867876
C         7.98510391355265    5.44789888314857    3.94976899326273
H         7.03417473245691    5.94734115612215    4.18501762107865
H         8.77295535447769    6.20667725185311    3.90204020718738

