49
CSD_code = MOBKUL | q = 0 | S = 0 | Stoichiometry = C18H23ClN3O2RhS | MND = 6
C        13.10314388273464   12.71027178797367    3.03055412428496
C        12.75692931195140   13.51443645982875    1.01635787220212
H        12.43128116277349   14.16801721032399    0.23270246678627
C        13.05051943378212    9.40521797366152    1.20915138561411
C        13.49792748517639    8.98464835789714   -0.02710252950105
H        14.52252591353296    9.17246374263337   -0.30403308441867
C        12.61501844339514    8.33322064448764   -0.87009244340680
H        12.95113112878618    7.99671768027804   -1.83963319128093
C        11.29730751380495    8.11154346887003   -0.48187574337486
C        10.87626238668348    8.55321362373512    0.77062257693485
H         9.85411960360401    8.39133706149335    1.07776256366738
C        11.74863820866882    9.20227022366953    1.62488700489926
H        11.42624790509358    9.56628512326528    2.58939971267000
C        10.33144250032066    7.42513365809629   -1.39622946527872
H         9.80064982000740    6.63585219015961   -0.86791819112731
H        10.84053989241239    6.99565194867078   -2.25466239714716
H         9.59036666230022    8.13850081651192   -1.75540897142664
C        11.87641270046482   14.86172215098374    2.93979310252629
H        11.66016570977272   14.59632567979916    3.97858886880542
H        10.93983909217327   15.03995175767716    2.41218401597422
H        12.48892081188114   15.76541798002500    2.90948304601199
C        14.29565412642771   13.50152815616342    5.78307650914445
H        14.43589548472449   14.36889050763072    5.13682210931829
C        14.94613393250932   12.32486973947985    5.41532135341755
H        15.54812269694167   12.34055650960250    4.50678647108753
C        15.33012993225404   11.20784588222324    6.35262412286901
H        16.23110987284332   11.49076880359364    6.90945995972736
H        15.57894561619673   10.34457508052052    5.73315942783407
C        14.20760730912268   10.80642618797371    7.32766695608622
H        14.33298372194418    9.75354411514395    7.58623275037228
H        14.27872096955448   11.37904755427495    8.25449582781785
C        12.83406587799943   11.00398492634341    6.72829499236966
H        12.30293633765331   10.08623576868253    6.47470962366502
C        12.09199782038909   12.15680678874753    6.89195601129643
H        11.00665226830381   12.08382865433718    6.81274466196649
C        12.56277990192742   13.38584540114969    7.63970389559981
H        12.53594320370244   13.18350368298697    8.71610276920543
H        11.85091873212363   14.19230146838259    7.44622996215960
C        13.97096512309750   13.85004109921777    7.22320415900844
H        14.03672397421559   14.93285261761648    7.35101892940109
H        14.72649877185012   13.40435695472290    7.87130456403714
N        13.59569257036494   11.90355740393400    2.06750886551352
N        13.37102626533804   12.39661228356127    0.82096276937214
N        12.57210678053189   13.75541055236065    2.34446146200247
O        15.50347449232478   10.24030810266739    1.76418335026571
O        13.96362312481627    9.98045110545099    3.65461229604099
S        14.16909442301420   10.27734604622541    2.27254169539925
Cl       10.86153097506454   11.43756953340749    4.08750186364504
Rh       12.89557612545005   12.15203553358423    4.89848191795624

