120
CSD_code = MOBNUN | q = 1 | S = 0 | Stoichiometry = C52H59BFeN7(1+) | MND = 4
Fe       10.18401613423665    3.93397402476383   25.38388545650908
N        10.29364092913180    6.47552319984327   23.64843601096604
N         8.39564469294369    5.47471660505695   23.39849328524470
C         9.60683996024497    5.37117843750944   23.99000513045793
C         9.51172505976992    7.28028343479565   22.87217299140025
H         9.84096547712163    8.23402483555817   22.51801343930408
C         8.32128465995961    6.65577571461815   22.70275843220673
H         7.45058449648018    6.93797686644706   22.14866535563461
C         7.33718530952667    4.53122768170440   23.46780387507180
C         6.12998049285760    4.89517832847876   24.06859818016780
C         5.09819214954901    3.96859604343828   24.09268340574095
H         4.16232446127290    4.24023324499766   24.55834278525397
C         5.23315027922337    2.70816228626769   23.52653626324679
C         6.44256933227004    2.37596101199524   22.93253181868404
H         6.55836875989001    1.40351083022342   22.47550529576080
C         7.50434392302170    3.26799703956891   22.89634224522000
C         8.80281494711750    2.87608772322152   22.25884274555706
H         8.67676790109669    1.97859707188507   21.65958398266450
H         9.54968957173741    2.67305144281854   23.03641695447342
H         9.18258611004290    3.67268220962029   21.62117517150574
C         5.91730612384302    6.25342297006861   24.66660887545900
H         6.85114044107070    6.70883023676742   24.98612025465481
H         5.24984328281864    6.18541908228654   25.52187956217749
H         5.44911488761817    6.91435734810215   23.93692776696101
C         4.08926388913387    1.74407316857988   23.55532568555291
H         3.26712444953092    2.12311075399064   22.94961305214523
H         3.71864056502293    1.61991359873110   24.57162065866713
H         4.38242899204432    0.77296761082693   23.16515118435060
N        12.44578040643073    5.35232911623003   23.99854270675227
N        12.73781025328519    3.21337552524645   24.04622390971720
C        11.89566340629524    4.20684860044663   24.41419445287720
C        13.63277753502075    5.09407228486306   23.37491124305677
H        14.24194560219427    5.87384408225609   22.96803064348702
C        13.82251579740751    3.75297929813202   23.39770352869125
H        14.62223474573456    3.14630978139835   23.02713711609702
C        12.52218604578817    1.82579941948069   24.26692098120598
C        12.25397856202416    0.99048671526917   23.17985519682137
C        12.05505189151723   -0.36062388518786   23.42009199772422
H        11.84432446377541   -1.01524153471124   22.58746625159989
C        12.12934686074106   -0.89440425618631   24.70016388629747
C        12.40782881874702   -0.04199052710465   25.75959788769861
H        12.48490556728244   -0.44586606608343   26.75891998413076
C        12.60374202820006    1.31762982412879   25.56557316067479
C        12.90324628220229    2.22177127273538   26.72359008679875
H        13.15472538380652    1.64031534874600   27.60630386805433
H        12.02463190481486    2.83941206024693   26.95368239464962
H        13.73539105325426    2.88555788257928   26.49362678789726
C        12.20113369231230    1.52070529096299   21.77898273567460
H        11.86082863776653    2.55317850414073   21.74977145067542
H        11.53611407591458    0.91368667579671   21.17040623502341
H        13.19228091993721    1.47949581753130   21.32687577434013
C        11.90966373982347   -2.35809487595745   24.91774053501026
H        10.89247419811721   -2.63265858616754   24.64041871297047
H        12.07262785097448   -2.63044792221146   25.95692219246971
H        12.58831954041170   -2.93860428215107   24.29572114857053
N        11.42590482039609    6.72838598439971   25.75967261239833
N        10.66174343614912    5.98372447801206   27.63531813441508
C        10.87961851078917    5.64782498730622   26.34593705277672
C        11.51754046948216    7.74446687002255   26.66535669793066
H        11.88063524000894    8.71612013453170   26.40555053247089
C        11.05133381213149    7.28067058862923   27.85047524183467
H        10.95890551577503    7.75148221861552   28.80728881177258
C        10.10776228864374    5.14918849706796   28.64438658904942
C        10.95673539715832    4.51521683844945   29.55188044139168
C        10.39022457617207    3.73489449177250   30.54824438417640
H        11.03542259542849    3.23594635656686   31.25611848788039
C         9.01350747690941    3.59082726006855   30.66594956763646
C         8.19462525703505    4.24481889459496   29.75522507631267
H         7.12173767026155    4.15356755133597   29.84664572269537
C         8.72164367555995    5.02449423348760   28.73647624495413
C         7.83543216480544    5.72152127453850   27.75049591709569
H         6.79066194384192    5.60317574844248   28.02310120423580
H         7.99134294760079    5.29609045361846   26.75515290095324
H         8.06559041927273    6.78553630840796   27.70783247646636
C         8.43845363708554    2.74517607402646   31.75839648005367
H         7.35230929501027    2.74558083782239   31.72596648819081
H         8.75585018169970    3.11869441112875   32.73043030219111
H         8.79125241154537    1.71842570203562   31.66916832628427
C        12.44216843220338    4.69946930011409   29.47839198767404
H        12.78176428616722    4.80661093401212   28.45043710936489
H        12.95419448082067    3.85610266015854   29.93344892280713
H        12.73148237177373    5.59885498547795   30.02292100199655
B        11.71685835182659    6.69468077732947   24.23526472956362
C        12.59825974743648    7.87926436713801   23.61943564240019
C        13.60404732302597    8.50070985996058   24.36040148947537
H        13.77117492453058    8.20626857100601   25.38662402516310
C        14.42393592854461    9.46951501318769   23.80882345615770
H        15.18679762997953    9.93549244427659   24.41518111846525
C        14.27482513295436    9.83350718181324   22.48230187468089
H        14.90824602234031   10.59300545773590   22.04994695852568
C        13.32242299168238    9.19312022018488   21.70942042816290
H        13.21829799076859    9.44157057538158   20.66336501625143
C        12.50751237475873    8.22577783720119   22.27070765485713
H        11.80117717736929    7.71257246782558   21.63367906215428
N         9.21256538814740    2.87923614766313   26.01289252098215
C         8.58285462056777    1.71857344172772   26.48328222774281
C         9.30697573010139    1.18973538859679   27.73606379759307
H        10.34130717968692    0.96291600725701   27.47265493146067
H         9.30985724274179    1.96892463374841   28.50071859804200
C         8.60329762545783   -0.06612357404991   28.24455656969385
H         9.12545646893708   -0.42705262617517   29.13720046845632
C         7.15405549833086    0.26238380405364   28.59889193529047
H         6.65391501079746   -0.62939325906451   28.98040467958433
H         7.12730087818830    1.02472465916722   29.37990132832871
C         6.43273693993564    0.76944497161552   27.35088886980072
H         5.39342037152262    1.00852725868365   27.60035937313027
C         7.11868473159022    2.03504334831774   26.84349536943677
H         7.10848570270916    2.80880317240099   27.61203575122792
H         6.61254178885421    2.42317796649972   25.95725756610240
C         8.60612195180043    0.62585199262500   25.39663178242310
H         8.08984138099630    1.00169161087390   24.51210416150501
H         9.64407466330909    0.41426256932699   25.12705907051966
C         7.91409606509528   -0.63139801493491   25.91792082867398
H         7.94008336135991   -1.39880703014151   25.13674333548656
C         6.46227802377269   -0.30540487069721   26.26547350410454
H         5.93842197888853    0.05089618322512   25.37659417319281
H         5.95439258240443   -1.20405948725240   26.61966813543093
C         8.63869517491786   -1.14347136410968   27.16148961449336
H         9.67334656406876   -1.38785397531687   26.91333090730300
H         8.15502762452727   -2.05178016832551   27.52484559509088

