87
CSD_code = MOBNAT | q = 0 | S = 0 | Stoichiometry = C31H42B8I2OP2Pt | MND = 5
Pt       13.93307439235888   10.56056109714965   13.56220408345169
I        12.45296821261932   10.21370992625674   10.22423973117636
I        14.09600220925290   16.70533046420181   10.21403633243192
P        15.78307962582002   11.35968370728706   14.83808433023848
P        15.66762062170166    9.60538554345674   12.23992180572580
O        12.14015294515249   12.67077785403084   12.82807880150531
C        11.48679729993440    8.21518151300452   14.75534017301268
C        16.08216583859149   13.14576412262404   14.65778603500672
C        15.08228295686342   13.94009182841650   14.10811426828731
H        14.13509311850903   13.49376153415862   13.83307734633919
C        15.30078075410331   15.29374352258090   13.92068776639677
H        14.53021154625106   15.91447341940899   13.48983799134117
C        16.51290853352508   15.85814949117874   14.27884753008473
H        16.68376347751336   16.91235029257851   14.12100265666592
C        17.50601979957396   15.07087816086094   14.84079319518952
H        18.44860907291822   15.51308842164269   15.12936320825142
C        17.29361602613101   13.71875812950129   15.03254751594490
H        18.06515850530099   13.10569297227115   15.47851811928805
C        16.00931188126115   11.12420435975502   16.62850159186556
C        15.63114165631084   12.12004644728006   17.52434368226067
H        15.28184182632758   13.07067544896095   17.14710098261343
C        15.71114843040878   11.89869135828648   18.88642266937215
H        15.42513603550781   12.68041666983058   19.57454232899076
C        16.15478237765815   10.67856053931384   19.37013121562585
H        16.21832309902976   10.50805838543606   20.43437669463840
C        16.50944298545635    9.67353113334393   18.48485409939332
H        16.84606857849397    8.71724869607134   18.85864859690285
C        16.42805048094961    9.89142709038946   17.12268742454528
H        16.69359413867189    9.09884622394782   16.43579932024062
C        15.75747252063454    8.09710899943300   11.22665902729868
C        15.82907974154973    6.85396191360842   11.85206468007620
H        15.90354377056353    6.79603784780362   12.92989247568245
C        15.80385778825789    5.69222579307816   11.10431230867902
H        15.87066237901581    4.73315733429570   11.59748246091794
C        15.68410330538484    5.75768795251049    9.72527361148399
H        15.66111179946576    4.84916784472118    9.14230599011244
C        15.58045095735020    6.98898189351042    9.09943726467534
H        15.46802723410378    7.04454525474218    8.02729008368639
C        15.61050513471874    8.15403143345356    9.84324895669701
H        15.51190213422031    9.11101334226749    9.35251523287477
C        16.36763120481634   10.90596426236295   11.18008523827737
C        15.77401284224111   12.16065934737639   11.25391520796078
H        14.87477774226492   12.28254743086537   11.85078144274396
C        16.32233005676256   13.23208939045426   10.57438137728391
H        15.87752766821374   14.21156061731653   10.65391225502695
C        17.45548782195747   13.04814520812718    9.80025976950626
H        17.88461277828033   13.88328755426298    9.26713471607495
C        18.03946624519772   11.79408348414179    9.70704299200541
H        18.91967419650828   11.65226215074500    9.09673073467778
C        17.50520397891934   10.72420503048991   10.40099990977132
H        17.96555180858576    9.74755412683740   10.33388513239201
C        17.12244186182521    9.37146300836628   13.38177996149669
H        16.88013193005668    8.56357230011192   14.07885161399610
H        18.00482939731925    9.07110769147749   12.80853487153756
C        17.38027863324465   10.66664196468164   14.14443840063614
H        17.77918535797026   11.41768602676168   13.45546948408940
H        18.11009115299272   10.50940619252852   14.94315356490969
C        11.08908932272045   13.52488157381778   12.47187136114476
H        10.59671318700666   13.90659369122529   13.37910184360844
H        10.33538936943986   12.97767551589094   11.88800349513955
C        11.62185549529276   14.69361844069471   11.64486205855446
H        10.78847430822428   15.36228691186030   11.41503103408242
H        12.34931307216254   15.24437071611232   12.24502594312799
C        12.27955321033233   14.21015498719223   10.35579418613688
H        11.58888836625798   13.54892868830949    9.82339716297495
H        13.16392880659803   13.62081541577662   10.60045575789506
C        12.63666704061258   15.32822202878763    9.40439258760300
H        11.77080047267746   15.93929674828675    9.16088386768325
H        13.08031176767036   14.94091217077451    8.49100062016164
B        10.71376011898091   10.99794454148042   14.69804757666598
H         9.95159783634923   11.79388287311152   15.11358296871544
B        10.20875457581067    9.36925568693230   14.44143642738932
H         9.16799724921061    8.91086275286231   14.73378907269008
B        10.56313792833252   10.28683200622569   13.01922496537611
H         9.70472559524307   10.60476278822505   12.27453028543628
B        11.90449394627714   11.39662820176014   13.43148029219297
B        11.40092019502120    9.63417573675201   15.71489052960210
H        11.13295516365594    9.50115740284789   16.85398220414165
B        11.09493999790731    8.55492452694398   13.14239585608735
H        10.63210912423910    7.70080392495102   12.47802186602810
B        12.21833942910421    9.95665543139453   12.41096725072200
B        12.44387226205511   11.13431217848620   15.08893478021396
H        12.78457082550329   11.99654533633291   15.82416625612603
H        11.01957105172802    7.33057752959561   15.18046933468334
H        12.55430112951093    8.01974413673728   14.72704650146147
H        12.38597333754065    8.71467049233071   12.63597514626092
H        12.68379794590103   10.01206381470077   15.68671050672222

