54
CSD_code = MOBPOJ | q = 0 | S = 0 | Stoichiometry = C19H31NO2W | MND = 10
C         6.99121225491859    2.97577608843243    4.36894892090646
C         5.83438429759673    2.28684204456608    4.87153707702392
C         4.98896277192692    2.99064912485380    5.71634605746035
C         3.60594144440663    2.51001255463119    6.04805550621957
H         3.27840534414320    2.92514853183267    7.00082722804906
H         3.56455234640833    1.42089479368948    6.11145963844214
C         2.64467157887772    2.99999090456315    4.89138633058627
C         1.24657798115805    3.33019359375201    5.48003719606487
H         0.54516455970531    3.43523422835600    4.65252985284600
H         0.92728258129025    2.48347282086820    6.09150328569610
C         1.20257866840142    4.61327242462516    6.30054279085420
H         1.87534928848141    4.56853397713401    7.15447206562438
H         0.19374933567065    4.78478057489057    6.67087300046288
H         1.48824189172168    5.45622942171066    5.67683722265146
C         2.47917994954891    1.83765536648465    3.87329169357602
H         3.47013241613534    1.44234074656772    3.63634210078541
H         1.88915025842513    1.04098071379963    4.33205782911076
C         1.83599252192453    2.29706678684532    2.56797286207964
H         0.77878679814518    2.51767053016585    2.69537473912273
H         1.93890274243676    1.52602810873607    1.80904797077314
H         2.34652942294297    3.19593689351041    2.22140234624240
C         5.10324549727701    6.37167152966485    4.38102173365775
C         4.46289454843636    6.27723914202869    3.10137095467584
C         5.44300107804136    5.88266438511404    2.14415821255516
C         6.68311940647562    5.70707602565629    2.83690379138396
C         6.46531137323799    6.04074408564350    4.22113485521653
C         4.44286339450060    6.90544942895825    5.61670175619292
H         5.08209087994675    6.78865092351146    6.49004114420031
H         3.50303206022302    6.38557488009119    5.79739054464926
H         4.22395285909595    7.96888003686096    5.49731705469928
C         3.04885123002721    6.69844703606634    2.83495010372183
H         2.87280950044613    7.69787861158720    3.23470907580900
H         2.36232808978010    6.00434802997088    3.32410929591867
H         2.83517060114344    6.70625099474250    1.76875560895959
C         5.27126483305382    5.81783155137095    0.65158972398318
H         5.62861076878822    6.74145598808848    0.19156497794815
H         4.22522826572968    5.67913308156267    0.38635330070630
H         5.83583708349419    4.98613459861716    0.23224696137528
C         8.01480950227018    5.51490969409789    2.16913136965759
H         7.92082204007480    4.85655251059214    1.30740912787505
H         8.74321153307962    5.08016992384598    2.85058092400203
H         8.40272400007294    6.47543783453729    1.82265577129605
C         7.54228151238784    6.26503440344850    5.24435879873724
H         7.76631833686756    7.33238814033997    5.30560320605486
H         8.46173636963794    5.74961995844035    4.97482634541503
H         7.23885421342792    5.93431172306886    6.23801659697738
N         5.01872497877470    2.91821361930582    2.35479243535826
O         4.99733847479079    2.21493093514055    1.38478111324847
O         3.18973508207507    4.11339332881106    4.29819825032395
W         5.19196098142186    4.12000019548957    3.63775554349051
H         5.40692332516243    3.77804626651793    6.35017739988886
H         7.55911098637983    3.52991907395553    5.12014082479791
H         5.58035872193524    1.28410016881663    4.52726653394571
H         7.64393001768058    2.38353166403533    3.72934094870242

