48
CSD_code = MOBPUP | q = 0 | S = 0 | Stoichiometry = C18H27NOW | MND = 10
C         5.90606465078979    0.62829425193307    6.88043109845076
C         7.08378599802511    0.04443183468225    7.43314976156767
C         7.30606944791106    0.26862572947712    8.79234030735005
C         8.61086945469033   -0.09810018578712    9.44551360757275
H         8.99681561846032   -1.04384955126544    9.04600398977880
H         8.48816953122341   -0.22442994230292   10.52645757558049
C         9.60271883384589    1.00613674045052    9.15540914360028
C         9.21704686384630    2.06057383520896    8.43567642800688
C        10.24923661878738    3.09425558650626    8.06050113343871
H        10.75483127472800    3.49839148221633    8.93943479635928
H         9.80982072941539    3.91574494483143    7.49805665089807
H        11.01174633353035    2.63322253185116    7.42960042906182
C        11.00339723939810    0.79712600227283    9.67603207016532
H        11.70846967142463    0.71038589313742    8.84919110772933
H        11.06065281879583   -0.10881754541419   10.27472433931167
H        11.32220898745960    1.63889514332428   10.29096899414820
C         6.06423454955313    3.18237641763387    9.61080079137444
C         5.13583207045844    3.19258226590355    8.53533841182654
C         5.65660433292022    4.03513288810426    7.50865414034591
C         6.90473686674907    4.57914357075396    7.97087800801480
C         7.14234917321781    4.05533568979907    9.28353247120643
C         5.83806247518288    2.60924861749012   10.98020275274561
H         5.46107604442066    3.38774618403937   11.64784497725167
H         6.76614217595824    2.22768203400562   11.40445607756387
H         5.10535933993205    1.80376530009601   10.96485504535779
C         3.74184079186928    2.63974684608593    8.57903382691014
H         3.68123189241401    1.73590686915306    9.18458175050373
H         3.37045191865454    2.41381340622937    7.58115327290834
H         3.07379531666886    3.38099675579713    9.02408772805611
C         4.92969352959305    4.48603908069182    6.27563405685602
H         4.34215701332227    5.38176309078060    6.49091981947536
H         4.25200684861815    3.71526617376295    5.91323153514953
H         5.63262601834776    4.72398483039375    5.47915903872489
C         7.61271191703616    5.73154083661423    7.30979203604426
H         7.81496015096961    5.51880288209473    6.25968744914841
H         8.55730834459074    5.94991113540479    7.80273369892083
H         6.98885935758656    6.62632843953397    7.36046179679082
C         8.16765497048464    4.52056810579879   10.27419101630748
H         7.68378886330284    5.14175995938265   11.03145931843691
H         8.94312228125745    5.11072421942089    9.79404625184135
H         8.64024546961590    3.67898567659534   10.77860173890503
N         8.00586887189250    2.31647927363290    6.11919222309059
O         8.54086583279437    2.40976821398680    5.06351817991132
W         7.18659044248357    2.31432615480905    7.68614559430491
H         5.73492009989639    0.46964941923881    5.81874402020156
H         7.84345706340073   -0.42949177448432    6.80931551038188
H         6.43200854761817    0.32116677232759    9.44388518056834
H         4.99613335687507    0.51676391379774    7.46847084786024

