135
CSD_code = MOBRAY | q = 0 | S = 0 | Stoichiometry = C56H64N10O4Zn | MND = 5
Zn        2.66729932622717    2.90772298985027    0.63376169046426
O         2.78584197589326    2.60494900672706   -1.32944566456794
O         1.94667157810587    5.77876216289386    1.34791881695830
O         2.54830905163135    3.10731534355512    2.56825592230186
O         5.18814755744023    1.69884403507600   -0.01348500687348
N         3.50030217277035    0.43558977974357   -3.01677477198975
N         3.27326485911217    1.45821286504200   -3.79984454900424
N         4.04126919897096    1.58344125015609   -4.84763483718359
N         0.79574719520356    3.68505107069873    0.30191209683048
N         1.03112606921965    3.64559768617473    6.30910430534020
N         1.57979647865730    3.29227051212045    5.16886101473176
N         0.89502669117883    2.46603176678602    4.42222662210883
N         4.36993897244106    4.03124685297364    0.73381251184693
N         2.28013467933818    0.93287333697588    0.85568514539335
N         2.04510657302834   -1.18743685603202    0.36775188127233
C         1.94614329696307    2.80323999909728   -2.25512295455150
C         2.19617715377885    2.32642134942469   -3.58203010737345
C         1.42111828800160    2.68041022148300   -4.66057683791462
H         1.71381250731259    2.29476634929642   -5.62533757097575
C         0.28842079439294    3.48896552217766   -4.51914191602568
C        -0.05628888438083    3.84634166093228   -3.23229625813743
H        -0.96077954662682    4.40655459834473   -3.04896872156070
C         0.72054925134852    3.52407827079919   -2.10930344717637
C         0.23612244233732    3.91281917976036   -0.82666966361661
H        -0.73456993185576    4.42917002560235   -0.83721351542633
C         0.13402802897991    4.15695874177954    1.48910743038736
H         0.15315947811356    3.35711698891012    2.23559906754960
H        -0.91104198777327    4.44440909196703    1.28796600656273
C         0.88119474999397    5.33240204846188    2.03792681503989
C         0.69395911922774    6.08880595686458    3.15626031273037
H        -0.07192311232150    5.96642188697999    3.89463887683850
C         1.71883269525417    7.06728504335006    3.14393306695376
H         1.87786583214907    7.83912388079079    3.86659505491633
C         2.45131964437854    6.82465021344287    2.02641882402613
H         3.31428963884566    7.30734377668213    1.61310505229307
C        -1.18233403729881    2.52730940901314   -6.23916680475163
H        -1.75444819218109    2.06101988326010   -5.43959648310134
H        -0.42352949525544    1.82227383329572   -6.56783294453025
H        -1.85268027175841    2.72310777934380   -7.07351888127920
C        -0.54640697219471    3.84026301029307   -5.73953868276941
C        -1.69499944010779    4.79461787221327   -5.40517946925996
H        -2.43331536339877    4.29578243246023   -4.78016367954046
H        -2.18986932456931    5.10595649038065   -6.32204980894799
H        -1.34413337960918    5.67987079363550   -4.88399838587490
C         0.32058681626166    4.38363713397117   -6.89980232277967
H        -0.32608904018100    4.44251160754082   -7.77980398225702
H         1.07196518099299    3.62382104923402   -7.11795265418860
C         1.06765910955389    5.73323675905866   -6.79510148015346
C         1.75750495537112    5.93583853815426   -5.44641238285247
H         2.33469102617458    6.85878329568485   -5.46692800521393
H         2.43468012045965    5.11332360501203   -5.23141947201523
H         1.03748714994429    6.00433528280969   -4.63640997413265
C         2.14925920561386    5.71535893570545   -7.88624365905861
H         2.67708883232427    6.66610456152775   -7.91597988635269
H         1.70580416119596    5.54194594615067   -8.86474804780469
H         2.87705355261124    4.93042045548757   -7.69305965358607
C         0.14626647097967    6.92406742812839   -7.08078616920960
H         0.73599181721777    7.83535827047452   -7.16176840031669
H        -0.58264224666368    7.07131437494372   -6.29159062963297
H        -0.38527289643671    6.78302312246699   -8.01969084310598
C         4.53708366428035   -0.19472267590043   -3.59224221989862
C         5.22378445190533   -1.36485784806264   -3.25320907021848
H         4.95982603455029   -1.92457598395246   -2.36935350018468
C         6.24184071266524   -1.75644361769052   -4.08231127549267
H         6.79703915586900   -2.65567898831801   -3.85657574239499
C         6.59688770830700   -1.01916424700625   -5.22820531002975
H         7.41365402436594   -1.37777500293947   -5.83773698008595
C         5.93731052094300    0.12687469556384   -5.58634809341236
H         6.20266478524153    0.69314833110451   -6.46485078866356
C         4.88623073001985    0.54335803922390   -4.76333230994769
C         2.46441843410798    0.01211713825436   -0.06246859732098
H         2.88121414440699    0.18617419724008   -1.03902224656017
C         2.09571461927278   -2.41727388504164   -0.36943764382443
H         2.45012723283444   -2.20779386056639   -1.37720576727854
H         1.10378920592946   -2.86913801519387   -0.42608287466866
H         2.77349848945685   -3.12672244844437    0.11104860335795
C         1.56615455954587   -1.01278466894543    1.63696246812332
H         1.16811824585462   -1.82457861425280    2.21076321069212
C         1.71741047530102    0.31005590775426    1.92668663376101
H         1.47006755449208    0.86255370497900    2.81214857096045
C         3.22176871145821    3.74949656133090    3.41922943621023
C         2.81257804250205    3.82305019838466    4.79165051672858
C         3.58358602387881    4.42642579821613    5.76019178548845
H         3.20491900368317    4.39578382868227    6.76944231996485
C         4.79763136778678    5.05200954052805    5.46176079411153
C         5.17669574314310    5.06731987638404    4.13492583417577
H         6.09249766506728    5.55457184321215    3.83571455064885
C         4.42829592798405    4.45592405105187    3.11753831186511
C         4.92701846428615    4.50936980180316    1.78615641940837
H         5.89458132647111    5.01983457784533    1.67476885671701
C         5.11416289677512    4.08151840580926   -0.49693081911110
H         5.95961745609969    4.78580986788516   -0.44137961232919
H         4.44452725568303    4.39174195099108   -1.30348114942768
C         5.63196911312005    2.70476053787005   -0.78504055578687
C         6.54025358055395    2.24032349354115   -1.68991155577091
H         7.05719733626343    2.80921888311184   -2.43545202847802
C         6.65551912732698    0.84892727995510   -1.44913633458971
H         7.28381182849584    0.15844924377841   -1.97340130646991
C         5.80581058729238    0.57909097192436   -0.42317008105127
H         5.56879591858934   -0.32912873019159    0.09400227882264
C         6.28577490231449    4.28969686746186    7.23697888715062
H         6.79821769369530    3.68606007406782    6.49074724873396
H         5.50204794259154    3.68232058567580    7.68240874076693
H         6.99939802304668    4.55812728006376    8.01332849133347
C         5.69477687739538    5.55621095647012    6.58262519915506
C         6.87042148930855    6.38537095106219    6.05888880544964
H         7.56507278876873    5.75565183369636    5.50660836818392
H         7.41170034409781    6.82172457199670    6.89486501852341
H         6.53694986290647    7.18604664453744    5.40536811748044
C         4.93516344766538    6.30695932713162    7.70018176951665
H         4.16642452741890    5.63159669703463    8.07655335205841
H         5.64446959368742    6.45160163597161    8.52003862334454
C         4.25442410709357    7.67008055996075    7.44557603538831
C         5.25275911774848    8.83187490512463    7.49384173804384
H         4.71689570407747    9.77936849069425    7.48415146314271
H         5.92448701856441    8.82336127808895    6.64261250716406
H         5.84735834658122    8.79176135153038    8.40422045442044
C         3.24879069074793    7.87736907064896    8.58829846706770
H         2.77015537647164    8.85069072728583    8.50394638414145
H         3.74811615891132    7.82656215502513    9.55380357727173
H         2.47290324760877    7.11560049774749    8.56071028252159
C         3.49001281805439    7.71127658475008    6.12406070423960
H         2.98722615766988    8.67252720552771    6.02648429484492
H         2.74223294626557    6.92359687501572    6.08894648570817
H         4.15551100772229    7.58475138382304    5.27486186714961
C        -0.14062581306722    2.99361962204898    6.32911961309366
C        -1.17546999098115    2.95793847966050    7.26955120440458
H        -1.10746362089745    3.52819343281094    8.18242484881119
C        -2.26135325103284    2.17544234815389    6.97622210030289
H        -3.08270519220204    2.12023749429533    7.67610877352461
C        -2.34713240506508    1.43195509545894    5.78302462297492
H        -3.23109623232397    0.83441658464112    5.61221883193703
C        -1.34878052252196    1.44813106140055    4.84458589401008
H        -1.40777466827464    0.88137587787437    3.92831668876953
C        -0.22895019630766    2.23939287403881    5.11906382220972

