100
CSD_code = MOBWOS | q = 0 | S = 0 | Stoichiometry = C51H40NO5P2Rh | MND = 6
Rh        1.08405564321822   13.28421765639300   13.94035646552957
P         3.36477071631198   13.06257199539834   13.74878815853928
P        -1.15662681076231   13.47650569117748   14.36337783465030
O         1.20578649819091   13.21824697237501   16.00621662959322
O         1.07009975159508   11.03491887881920   13.39284174198825
N         0.82598584313083   13.28685406774287   11.92167260859055
O         1.51174606731229   16.04561785051128   13.38195379097148
O         1.63808832818966    9.84976304718986   11.59083276503968
C         1.48845948805993   15.51497236306913   15.69776130260805
C        -1.85837734594552   12.21137179759389   15.46312588875907
C         1.68209083488041   16.78897011744336   16.22160658021813
H         1.78752126213013   17.61762738059224   15.53599370272238
C         3.87810946815969   13.05455227763952   12.00463940685431
C         1.35022851407021   14.37888024272769   16.53534896513107
C         1.28567235436745   10.86641353374482   12.16412268514663
C         1.39264665495613   15.24220298055996   14.27887062258655
C         4.15222867313069   11.59678014421410   14.47787445941423
C        -3.32795023668533   14.23138733446952   12.65412822613256
H        -3.48064691089109   15.11106799842586   13.26260035379639
C        -3.18116352898301   12.33080737591342   15.88429773811372
H        -3.77177901548285   13.18072042778098   15.56739714659814
C         0.99449888591808   12.11642294164130   11.29830101517935
C        -2.32080173298326   13.32808654559686   12.96643974718284
C         1.73376767415783   16.98751770870636   17.59127730108055
C        -3.97153992332301   12.86675874919740   10.78325891458346
H        -4.61041625875456   12.69482060569939    9.92980991914025
C         3.62195236285624   14.19524807503079   11.24178731098285
H         3.20063702812744   15.07296226203719   11.71481411311604
C        -2.16571587823737   12.17683730414426   12.19571156243152
H        -1.40351880750225   11.45792229900385   12.46836668452977
C        -1.55489919123591   15.04446023076293   15.19345795334259
C         4.35934458962802   14.34624991664323   14.58496901106616
C        -1.69142671497165   15.10826775182992   16.57631123533420
H        -1.68885367082960   14.19896468261862   17.16050367274485
C         4.33643819802910   11.90075199897533   11.37814468300310
H         4.48703277332000   10.99659407523658   11.94890756077115
C         4.36284145280253   14.27930935302387   15.97827606121251
H         3.86539062975339   13.45453152342991   16.47112363733206
C        -2.98321981539509   11.94968368342372   11.10644482306949
H        -2.85223422333235   11.05809585479659   10.51146431380760
C         1.57682359591081   15.88534634987488   18.42347529608948
H         1.59992278652980   16.00989869426438   19.49749928385823
C        -1.52039480398993   16.22613992142902   14.45461864621383
H        -1.37041195449192   16.18350483192290   13.38387653173615
C         0.46678957899878   14.34568327784382   11.19737204699863
H         0.36746634866693   15.28680701738182   11.72278024311461
C         5.52772992140353   11.43109964125789   14.32389106032844
H         6.09552564285909   12.15633779357388   13.75479056757522
C         3.87069580203685   14.19197749653983    9.88266444291466
H         3.67523243921348   15.07978145203100    9.29859465388884
C         1.38598805433531   14.59521205389656   17.94034140071895
C        -1.81534718173336   16.33377636032564   17.20588078973886
H        -1.91147012062054   16.37383067169523   18.28056175952825
C        -4.14793155288255   13.99710044126321   11.56290450398732
H        -4.93040798685038   14.70207873213941   11.32238577556534
C         4.35094784352239   13.04617960117049    9.26764813805621
H         4.53544343287693   13.04241255519741    8.20348541615145
C         5.02989734077541   15.38367561919368   13.95232363890057
H         5.06627624901703   15.43544359775676   12.87471536242530
C         0.83420948802990   11.97888764326721    9.92766714812033
H         1.00770745768179   11.00297680915850    9.50116254904739
C         3.42142389849371   10.68771812895898   15.22930506588846
H         2.35811343943685   10.83130076448853   15.34794782672256
O         1.20339050772017   13.54007199583019   20.05876047859628
C        -3.72782454411916   11.36571352677319   16.70757652161870
H        -4.75158799574053   11.45876076388172   17.03987383025595
C         6.15647606427987   10.34259593663073   14.89590787827390
H         7.22117622429209   10.20864784670177   14.77017424843858
C         4.57546068706942   11.90275363821687   10.01493534361991
H         4.92565352420485   11.00145937323798    9.53513160658228
C         1.93054944990132   18.35588257210302   18.17219420351680
H         2.20580823794138   19.06709767198236   17.39783608114537
H         2.71153985541448   18.34172351905801   18.93002570987861
H         1.01200353594541   18.70063132195102   18.64684003867179
C         0.46062101551889   13.07468432514417    9.17512555758975
H         0.32112288745933   12.99638898828291    8.10751690629810
C        -1.09935170219166   11.11400580576563   15.84628418777482
H        -0.08509933338203   11.01875944067605   15.48735636308826
C         5.42179071310290    9.42391964308232   15.63121660316060
H         5.91709215474668    8.57163694685500   16.07301066135613
C         5.67107725658854   16.35268906263615   14.70606392777449
H         6.19098713101384   17.15739335745779   14.20673244903066
C         0.26527613321476   14.28057699096547    9.83229980475258
H        -0.03414036144756   15.16689030175911    9.29562438240867
C         4.99607317466320   15.25185801590934   16.72549571687622
H         4.98008883176293   15.19568782251173   17.80367366713367
C         1.20644817741184   13.47481092467369   18.84992059911231
H         1.05631856925535   12.51002993743741   18.32864570684052
C         5.64389296025319   16.29850370359112   16.08852755635161
H         6.13271044237436   17.06613030464459   16.66979779716292
C        -1.80039941326214   17.50249622368590   16.46409990167045
H        -1.89159021507488   18.45821961733218   16.95823936971959
C        -2.96366135606059   10.27860488278331   17.10595201836137
H        -3.39465309668988    9.52860663789208   17.75281458065180
C        -1.65567756892996   17.44687682669736   15.08693373890468
H        -1.63243367432113   18.35787057613151   14.50720131129445
C        -1.65540543409155   10.15103807350167   16.67149910769385
H        -1.06657796877905    9.29810241147453   16.97453652626719
C         4.05959789383984    9.60001335767896   15.80139130479672
H         3.49099389037205    8.88676250443946   16.37931557324044

