72
CSD_code = MOBWAC | q = 0 | S = 0 | Stoichiometry = C33H31N4O3Re | MND = 6
Re       -2.22891582696927    0.79416129200206   18.19200867668216
C        -1.83733755549687   -0.66607323900544   16.95984725425635
O        -1.53587160136076   -1.51404629919001   16.24409097716510
C        -3.11228409401112   -0.35958986004496   19.50769612147215
O        -3.61154237352732   -1.02113628408125   20.29671611975340
C        -3.87524475630895    1.21014635991191   17.23340369117893
O        -4.83745662596114    1.52457881865649   16.68776315931138
N        -0.35918124771794    0.71895708897377   19.27775697885318
N        -2.29976570022738    2.46919470351194   19.55393083342896
C         0.59975402192647   -0.18540799550357   19.09297976916698
H         0.35923418201783   -1.01617119259192   18.44139077585287
C         1.84848015231967   -0.10871677538264   19.67659812737177
H         2.56100384942628   -0.88710435271286   19.46588121295251
C         2.16055649293443    0.96511642517667   20.50737001365017
C         1.15098657772695    1.89946985477293   20.70376934051061
H         1.33464450283485    2.75374096290418   21.33332656052477
C        -0.09020024499789    1.76148484067414   20.09186973877604
C        -1.18596025067751    2.72227879015144   20.26942495762857
C        -1.09993013176162    3.82214996547386   21.12125916704164
H        -0.19439878197551    3.97923148964439   21.67934629618440
C        -2.15803288785999    4.70703472910748   21.25647627367734
C        -3.29578351850720    4.42337574530880   20.49775702558325
H        -4.16607560117452    5.05753377246832   20.53652013017339
C        -3.32189288079364    3.31631982958967   19.67895132929688
H        -4.20568125669419    3.09464082623657   19.09397777480660
C         3.50911270029650    1.14884190980324   21.17459066446754
C         4.47476148410234    0.00615211986939   20.85303734234007
H         5.42229233317280    0.18171610354661   21.35725130786983
H         4.67059691142868   -0.05312702591655   19.78501472609206
H         4.08314031816722   -0.94774575380140   21.19931994425614
C         4.12737298031894    2.46419093850109   20.67895171192702
H         5.10843134835492    2.60384779124579   21.12648488633632
H         3.51116599253727    3.32042522680768   20.94105588535590
H         4.24270225762230    2.44378684403152   19.59719557022811
C         3.31036753068776    1.20224922822785   22.69643871897734
H         4.27315537558595    1.30441768596727   23.19120322405539
H         2.83837482849437    0.28722436310358   23.04887564517727
H         2.68880612067231    2.04348785628750   22.99174521794102
C        -2.12180948972022    5.92257372691098   22.16041859569131
C        -0.80210411788514    6.04794949482853   22.92587954940947
H        -0.83661805320591    6.93053291108340   23.56033650861324
H         0.03828976677641    6.16172063331651   22.24443862939567
H        -0.63477243180912    5.18408562329397   23.56619220296315
C        -2.30575994338773    7.17822045317001   21.29628004805736
H        -2.26879898466216    8.06679132067695   21.92192539113219
H        -3.26006647458224    7.16710340650821   20.77715766376564
H        -1.51386654840020    7.24654092574371   20.55315143892591
C        -3.26587703136272    5.81609584454687   23.17886948275327
H        -3.24539272277557    6.67259213700251   23.84838906481943
H        -3.16118647040915    4.91131406384948   23.77455727673098
H        -4.23509481294469    5.79269456402694   22.68877410101511
N         1.11260584856507    5.47368706178034   14.34886747531125
N         4.06932291398177    7.33118695665295   15.15037708865867
C        -1.13424495173950    2.14567229483819   17.01744235435615
C        -0.36150521854568    2.99091756853658   16.61814772721883
C         0.52096058229188    3.97128761716671   16.11821049676053
C         0.32395393197913    4.55721488679936   14.85987315884089
H        -0.51823808433630    4.25761686269893   14.24842578163183
C         2.16864314058505    5.88307309495099   15.05543288377465
C         2.45746430618047    5.36744106575467   16.32162975658067
H         3.32373904759455    5.73366024722571   16.84927026168446
C         1.62764981526234    4.40537093617373   16.85619375912229
H         1.82193847153141    3.98099707759027   17.83416181557105
C         3.02356088111860    6.90309322049401   14.44273245219400
C         2.73914698666662    7.39339566715024   13.16522832976635
H         1.87947926298956    7.01031985231611   12.64003057928338
C         3.57087654796195    8.35132489595550   12.61950310979374
H         3.37853228450499    8.74997315745135   11.63316665155781
C         4.65902378322341    8.79325412493629   13.35902436319471
H         5.33488623263861    9.53973849151619   12.97092919540082
C         4.85570268961733    8.24609938969940   14.61800671000080
H         5.68937421776086    8.55682364150713   15.23639894576965

