80
CSD_code = MOBYUZ | q = 1 | S = 0 | Stoichiometry = C40H34N2PPtS2(1+) | MND = 4
Pt        3.68136308996245    8.17309510614816   13.90680685708208
S         3.44538585245853    8.26268008136394   16.21530072621932
S         3.58596214686339    8.42089189929635   11.58580262678489
P         5.32958122963463    6.52690437386819   13.92787092302215
N         1.76459690738268    9.75087966247328   17.53086445980041
N         1.74727815449083    9.71001644878295   10.27045956866670
C         2.14858798384129    9.45615720230799   13.89982096360156
C         1.57765453983306    9.89919083649478   15.10859668410722
C         0.50348757520871   10.79255293547114   15.09534119906893
C        -0.01108904731706   11.24330016350019   13.89339251024087
C         0.52424501695965   10.81012307842585   12.69471339643577
C         1.59872600360463    9.91607141077307   12.68863028495399
C         2.17377744874878    9.37619671412120   16.32873959873168
C         2.31573752199420    9.22081238190403   18.76301227876903
C         1.90562375602306    7.78077309926235   18.97798371715777
C         0.56048003617080    7.45992219558456   19.11345548790571
C         0.17105633568554    6.14469894897915   19.29168494757192
C         1.12271046107244    5.13930624544343   19.33294920530395
C         2.46387806276153    5.45403842147737   19.19957727524284
C         2.85487850006226    6.76946587994389   19.02169962944900
C         2.21572751192251    9.41043592396177   11.47211300852014
C         2.28860430366290    9.15571581133890    9.04585635520963
C         2.00879728190314    7.67252374030230    8.93959389685199
C         0.70144149675458    7.20873318161921    9.01536357421753
C         0.43477211168194    5.85460125549484    8.92228011411729
C         1.47214378520308    4.95382627339928    8.75099857239488
C         2.77664711666650    5.41041596695013    8.67729764514850
C         3.04481221433961    6.76406254760979    8.77630863711339
C         7.01719136794172    6.82220816829949   13.33738726347764
C         7.23164668834657    7.90592996359168   12.49156105434729
C         8.49745575172772    8.15558448800916   11.99433927809242
C         9.55206731816699    7.32769392422356   12.34453035387898
C         9.34274479450724    6.25253897333906   13.19449297628253
C         8.07912454415797    5.99638557412734   13.69451548283535
C         4.66332947223674    5.22795666896101   12.84727567424980
C         3.27272162737019    5.15584092846171   12.77499399688353
C         2.66511013052847    4.20306378383031   11.98154521988819
C         3.44630640945096    3.31709892673753   11.25527377972607
C         4.82819733636743    3.39195041675030   11.31642565185028
C         5.44197633273730    4.34714186569961   12.10837183840207
C         5.57821746694937    5.69371515325923   15.52438884596409
C         6.21442185067586    6.42760676032944   16.52409554263000
C         6.39685721998531    5.87824576771794   17.77775477591064
C         5.93720578022887    4.59699584372548   18.04433812125387
C         5.29478877078535    3.87025713425572   17.05628687203620
C         5.10993421257581    4.41468519498184   15.79671121955313
H         0.97658982215303   10.37820988595392   17.60268726464073
H         0.90545014072272   10.26339500511708   10.20205591355318
H         0.05643773656437   11.14609450819610   16.01328533756395
H        -0.83768570621784   11.93626810109861   13.89130908473917
H         0.10002626652149   11.18410097375115   11.77401564519887
H         1.95859581125937    9.84615871452879   19.58325376603110
H         3.40699133200809    9.28582064130755   18.71160817344582
H        -0.18616789571879    8.24115833504189   19.08705314132056
H        -0.87568655252451    5.90516807976068   19.40096786413263
H         0.81783047251407    4.11347731013750   19.47200553037349
H         3.21121621060237    4.67616365179727   19.22919458498788
H         3.90262121061205    7.00783901530431   18.91450498376950
H         3.36949606941976    9.32525183418640    9.03183513879572
H         1.83483826970817    9.68946934096189    8.20854313345816
H        -0.11403712634977    7.90739993060519    9.13943440283005
H        -0.58484145036658    5.50419507103311    8.97703547736650
H         1.26139519269695    3.89857634675960    8.66985646524511
H         3.58944395168435    4.71342748209692    8.54343676473643
H         4.06391833336098    7.11647930529915    8.72317737161495
H         6.39871873288364    8.55062718362167   12.23457466393752
H         8.66447641849761    8.99690890728606   11.33880492997354
H        10.54124025052252    7.52348845121746   11.95975716317519
H        10.16805690648261    5.61341232669795   13.47020526170691
H         7.91429109922449    5.16437878020411   14.36555554317404
H         2.67195264984786    5.85771045568365   13.36108480839214
H         1.58844214019424    4.14872692079477   11.92551060143545
H         2.97542075555091    2.56686285914940   10.63879132907206
H         5.43175781443893    2.70275370158053   10.74502693880037
H         6.51985646647266    4.41125930819148   12.15138567878652
H         6.56542419102905    7.42830984992724   16.30391280386724
H         6.89787925692504    6.44470898154106   18.54870373997106
H         6.08253837744775    4.16690330319125   19.02393531400331
H         4.93698272279128    2.87280702389307   17.26399484238592
H         4.60836565665918    3.84549709153608   15.02689424655564

