30
CSD_code = MOCBIN | q = 0 | S = 0 | Stoichiometry = C14H10CrO5 | MND = 9
Cr        1.69580830819858    2.06232050576313    0.47732588493897
C         2.29597812139145    0.68684070776480    1.51384502991147
C         3.42165169099545    2.01593115518387   -0.10941322725223
C         1.50127292742840    0.71712120431994   -0.74364632730856
O         2.71507304660953   -0.20634599735662    2.11132768628744
O         4.51311960012245    1.93218265170147   -0.47327989859119
O         1.44421472977743   -0.16150430320345   -1.48695706313125
O         1.70828218329938    6.10726535708504   -3.98867562868036
O         3.33281003765840    6.80889595366159   -2.59532618496010
C         1.62029912945325    4.32706555818748    0.36337101877083
C         0.59764584036788    3.81893901726260   -0.48558658581695
C        -0.35856751034029    2.91538501350744    0.02302631035852
C        -0.32695744177525    2.59793410044738    1.38289918103248
C         0.69702996253592    3.09996272052870    2.21090338441929
C         1.65930099547779    3.99695673652141    1.71892748809635
C         2.44603796446378    5.30608769784020   -0.41404701820035
C         1.78746349711658    5.28566196177045   -1.76659025889522
C         0.74244839750939    4.42136365864697   -1.77989119967398
C         2.23886865220991    6.08136927038019   -2.90301578396342
C         3.85187186426735    7.61008965624856   -3.64406022706068
H        -1.17425517387939    2.57466620541371   -0.60413339213630
H        -1.10882540980217    1.98526611571836    1.81484533785056
H         0.67109306745652    2.87973025423005    3.27198660826709
H         2.38179635520392    4.45173454090749    2.38587925951654
H         3.49455697284866    5.00490000781425   -0.48514625838230
H         2.43028381196308    6.30659452020864    0.02654679837610
H         0.11119244133353    4.22373024350339   -2.62782165986378
H         3.10590444195739    8.33777073115403   -3.97157180949952
H         4.72583261922754    8.11360891724820   -3.23871242909901
H         4.12856887692460    6.98627583754054   -4.49660903530944

