71
CSD_code = MOCCAL | q = 0 | S = 0 | Stoichiometry = C31H31IrN7P | MND = 8
C         6.70136032122493    4.18695128515928   10.15066289788273
C         7.20615344432676    3.28192954513817    9.15224812638368
C         8.41190983426849    2.71097116881117    9.65119141130248
C         8.62052560426548    3.19580143519256   10.97576945151566
C         7.57144623789844    4.13943830383906   11.27149494118880
C         5.58921305896503    5.16589726206507    9.94710051347586
H         5.99857060671710    6.10477669229171    9.56813617170059
H         5.06351975617805    5.37691031350604   10.87682147555856
H         4.86446660460893    4.79619612067321    9.22482337068837
C         6.74935747604584    3.16878499758762    7.73511792839358
H         5.74335408244012    3.56032460413256    7.60928725714154
H         6.75652101909775    2.12957317267596    7.41169627487939
H         7.42228058378313    3.73122371124706    7.08464261557138
C         9.33430260390148    1.84171620555618    8.86237215136813
H         9.93789606785091    2.46063609341885    8.19570582098791
H         8.77590950346224    1.13601108024109    8.24953066274482
H        10.00586051738665    1.28344717250658    9.51065955561758
C         9.84107806819498    3.00134082366510   11.81678477681834
H        10.57106811731558    3.78125958989546   11.59022857993489
H        10.30489776643686    2.03597938640863   11.62555617452256
H         9.60035889703974    3.06463037816907   12.87650695040795
C         7.57929824029300    5.06693992749888   12.44494225376820
H         7.69064737971436    4.53069701392764   13.38987090477604
H         6.66717420119365    5.65824771947951   12.48724494316989
H         8.42513695839808    5.75119872933020   12.35921320457217
C         7.22222690918952   -1.02047312187698   10.92056562440600
H         7.72403639120240   -1.11300200910708   11.86079572426618
C         6.85890679084969   -1.98004076451079    9.97454231824044
C         7.04673604082697   -3.36650981395539   10.02047900680399
C         3.48852757933703    2.36474009472336   12.43001348714468
C         2.22613574367304    1.88495890590863   12.76847129381788
H         1.78052370016637    1.09236766541232   12.18343145641084
C         1.55172801476799    2.41968432899216   13.85037955658233
H         0.57381538743399    2.04358220130967   14.11226494212997
C         2.12997205278145    3.43100009929117   14.60198351911128
H         1.60316460298723    3.84016934844075   15.45100610301298
C         3.38485107440664    3.91220421441659   14.26792031851666
H         3.84039127160940    4.69460298327487   14.85634813067063
C         4.06058080128651    3.38142873741797   13.18382585812019
H         5.04403182875338    3.74439303555438   12.92381285806508
C         3.88674257215117   -0.08241783596783   11.10356334235286
C         3.08283243063510   -0.72460798583850   10.17025378197090
H         2.67729427637662   -0.18066889298589    9.33042485320471
C         2.81008877298840   -2.07463522608629   10.31116063372080
H         2.19575185664152   -2.57276805546341    9.57616196641103
C         3.33121096547920   -2.78782669743507   11.37682038534648
H         3.13057183103164   -3.84426524596435   11.47011053591796
C         4.11943502386272   -2.14570327994080   12.31895489974232
H         4.52934307248168   -2.69998654892889   13.14984900374889
C         4.39832936692295   -0.79912525221098   12.18473217929475
H         5.03030120868498   -0.28792723280002   12.89851416965595
C         3.46629909879492    2.32250113298999    9.57556469024936
C         3.77044746956040    1.80780881767203    8.31587855186577
H         4.52355305866636    1.03546750786318    8.23575615452934
C         3.11762978606030    2.29201924946912    7.19698011313938
H         3.34929261139628    1.88630988319517    6.22333484031175
C         2.17358708431942    3.29998655100445    7.32260846814231
H         1.66689465117366    3.67930212732272    6.44761493966986
C         1.88467625408890    3.82576404910571    8.57115295982208
H         1.15559073151757    4.61664529577378    8.66982805265607
C         2.52851125477791    3.34232774854508    9.69751102933660
H         2.30095566936534    3.75609675371009   10.66961509488216
N         6.80005336631063    0.14434536921267   10.41776550728503
N         6.21592504510077   -0.08049306214156    9.24809120344414
N         6.24137396074812   -1.33178572380330    8.95908178906095
N         7.20026351751067   -4.50231696616411   10.07784599294455
N         6.70566459865852    1.36732996522555   12.89477176392969
N         7.12161167564752    2.01780604775886   13.77764132175611
N         7.49676388463037    2.56463708263397   14.69976032776506
P         4.38032851796917    1.66932071703865   11.00088073797821
Ir        6.68894124628904    2.07757106942225   10.96692209815596

