73
CSD_code = MOCFEQ | q = 0 | S = 0 | Stoichiometry = C38H30N2P2Pd | MND = 4
Pd        2.77036571669260    2.62033162308369    4.69286361633173
P         3.36803617076673    1.39474503938877    2.91328448147520
N         1.29759902286341    0.18697955343430    6.01616705820219
C         1.83081908800265    1.08723977354317    5.53610023386732
C         2.36559788163577    1.86142967838453    1.47585657487775
C         1.50010144558109    2.94190484594381    1.62368868713987
H         1.46907711455143    3.48229190088222    2.57666972789573
C         0.69430136650086    3.33394312863532    0.57037516865689
H         0.02575062077534    4.17457461811889    0.68409785855335
C         0.74675101495530    2.64527167972397   -0.63058649277830
H         0.12153872947918    2.95291651355129   -1.45571733488872
C         1.59019778863831    1.55434605492580   -0.77392141668626
H         1.61639223540087    1.01124136883251   -1.70742121355502
C         2.39388100520311    1.15410820993818    0.27740585847595
H         3.03162668566896    0.28542990025219    0.18007287772308
C         3.23986182620944   -0.41752070085245    2.87693070787772
C         1.95848144138656   -0.95927016649706    2.94580255039454
H         1.10359243582304   -0.29568708637726    2.99831247941691
C         1.78710947182356   -2.32871531386290    2.96196638923038
H         0.79327383443493   -2.74665128522898    3.01927726960877
C         2.89259573140388   -3.16458746473026    2.91581436495322
H         2.75918486420202   -4.23621370096686    2.93313641446926
C         4.16769416990665   -2.62856164150768    2.85624552550054
H         5.02856162456666   -3.28078856105678    2.82619659669967
C         4.34687638524312   -1.25607472480762    2.84034795598913
H         5.34343384075487   -0.83683641125954    2.79978445967865
C         5.11544358876597    1.70518670804664    2.53188299706467
C         5.66963300684670    1.73547386632677    1.26025213290942
H         5.04696140978842    1.57642612454004    0.39172650601957
C         7.02151720644473    1.99503117587493    1.11219733544597
H         7.45438726280568    2.02978814588018    0.12304833352017
C         7.81749493246893    2.21689334207505    2.22342598435274
H         8.87035518075346    2.42252399433978    2.09864524656399
C         7.26530681599136    2.19100332002870    3.49522490249431
H         7.88543663611500    2.37744066131391    4.35972057138811
C         5.91596389396305    1.94242589985193    3.64836534114743
H         5.45730547995686    1.94279887730716    4.64327565421306
P         2.17152794410887    3.84657310820062    6.47295868288426
N         4.24040022585926    5.05524532372538    3.36956993600452
C         3.70694321217543    4.15481903666110    3.84876452824198
C         3.17377765833971    3.38010725961374    7.91060301480085
C         4.03930580101584    2.29963148875158    7.76294464544954
H         4.07031948546417    1.75905521368204    6.81006427821736
C         4.84514877956885    1.90778895663673    8.81629648911643
H         5.51367741726095    1.06712096164810    8.70270900987786
C         4.79272968626691    2.59666815882789   10.01714107515743
H         5.41801354858996    2.28919559326446   10.84228074692071
C         3.94915676334896    3.68750745933365   10.16034557739336
H         3.92290072856233    4.23073598923891   11.09377035372925
C         3.14542393391175    4.08753900425712    9.10897537962840
H         2.50767060808577    4.95622138143874    9.20622128876975
C         2.29951065739586    5.65885603344678    6.50912451932851
C         3.58084563666622    6.20069393567548    6.44013071342017
H         4.43573925166417    5.53711501711420    6.38743569967126
C         3.75213765065615    7.57014738221337    6.42407244634834
H         4.74593688773878    7.98816820405362    6.36679454970865
C         2.64659274245808    8.40593415078697    6.47041457447900
H         2.77993958351852    9.47757267240502    6.45337018951229
C         1.37153426543563    7.86981833815710    6.52997745002135
H         0.51063331284016    8.52199484340288    6.56018005563276
C         1.19243885410457    6.49731904796480    6.54581564919895
H         0.19590131286223    6.07803830560804    6.58634118612690
C         0.42410225331549    3.53619985463073    6.85419555548179
C        -0.13008289362051    3.50610539648614    8.12582631740062
H         0.49263398759768    3.66522461896119    8.99430301465844
C        -1.48197705354718    3.24665896692803    8.27392349393113
H        -1.91485965538847    3.21216718872784    9.26307579237346
C        -2.27793716133797    3.02463159544319    7.16271802629364
H        -3.33081760522046    2.81911727313418    7.28751771824543
C        -1.72574568939569    3.05031168373325    5.89091345552625
H        -2.34589311735588    2.86377971800416    5.02645157975574
C        -0.37640808090302    3.29888592076143    5.73772665876218
H         0.08227214131129    3.29841197019465    4.74283094390478

