82
CSD_code = MOCFUG | q = 0 | S = 0 | Stoichiometry = C33H39Cl3CoN3O3 | MND = 6
C         7.47140695826726    9.79784897315539    7.62450219322426
C         7.32373909588791    8.97810917442753    6.46758231553286
C         6.52887779736241    7.80770832932713    6.59879848075764
H         6.41480187410613    7.18500496955498    5.72469204911561
C         5.91847706851267    7.47526027611622    7.77612539565029
H         5.31614423922983    6.58296812157228    7.85004296695172
C         6.07364589770100    8.29769772869385    8.89702883694524
C         6.83261319282134    9.43581072096947    8.82402149593904
H         6.94754199472358   10.06462220518330    9.69474351358802
C         8.28285634474282   10.96495235970468    7.61316206203769
H         8.35390885768439   11.47564631551983    8.57794392176211
C         9.71935065252768   12.64997123134257    6.91221268298721
H        10.04945303779477   12.64136243719697    7.96043443871727
H        10.60264452727589   12.66657095047766    6.27451645651933
C         8.87623741916214   13.90603032674940    6.66469469205925
H         7.95780851504106   13.82235238589629    7.25071605358344
H         8.59752273917210   13.93527937958579    5.61173820750648
C         9.60934611257316   15.18900501710908    7.05173752789558
H         8.90717624538721   16.02073408169089    6.96324983023582
H         9.92070730195364   15.13112048755163    8.09809777712509
C        10.82340837795461   15.47762812030162    6.17647179768370
H        11.59693357668969   14.72555437351648    6.31065700763726
H        11.24785604900995   16.44635913874242    6.42996198815120
H        10.54058794490076   15.48855406471669    5.12702966112494
C        11.74598855598144   11.85084361043996    3.97523491569577
C        10.60797285614583   12.65785787109105    3.66800448353318
C        10.83872506986354   13.84839949760197    2.92460572535682
H         9.97582509127578   14.44376882650636    2.66748554308290
C        12.09383831779140   14.22948689469967    2.54219404927421
H        12.24479180635816   15.13649658078423    1.97762077899046
C        13.19828553174697   13.43911547137387    2.88383996565335
C        13.02967334110807   12.27301322910651    3.58154573181500
H        13.88512247221903   11.66017374010239    3.82556327443406
C        11.61195353180885   10.59555007296354    4.62959328116160
H        12.55841660098679   10.07811027794189    4.81097659165172
C        10.71306333811661    8.69113605539677    5.59853402293340
H        11.50059389653458    8.14192467321295    5.06594615396575
H         9.78144091738373    8.13529754908661    5.51570406777934
C        11.10546922303019    8.80994749060485    7.07579779053275
H        10.35437004219603    9.40257407502572    7.59834842565511
H        12.05968757533256    9.33960471010728    7.14512996039742
C        11.22916221700379    7.44578822600758    7.75474910949239
H        11.85722060869617    6.79112207090859    7.14601073257372
H        11.73083103686430    7.58317110933925    8.71511184246011
C         9.88001244347226    6.77972395233850    7.99900025844310
H         9.24060631507311    7.42077057369928    8.60166424169394
H        10.01655605507091    5.83819907835119    8.52536462303767
H         9.36427931266679    6.57393300789596    7.06511338118286
C         6.66276056060135   11.77346288055580    2.57188538915520
C         6.47688512534871   12.18494997817007    3.92395025865615
C         5.49535241997746   13.18414988274014    4.16797385000722
H         5.34311310023185   13.49038311647324    5.19130552525235
C         4.77224661137009   13.74822224012283    3.15410584531767
H         4.04026744039534   14.51399991770557    3.36124114821434
C         4.98006637256626   13.33343499967026    1.83392024076935
C         5.89660863490884   12.35636838209939    1.54760958909567
H         6.04640989948606   12.03653122589131    0.52680278139423
C         7.56058757891537   10.72221232407444    2.24374647110071
H         7.42998635719567   10.32283649171670    1.23450116549851
C         9.18740945290400    9.07658855100876    2.39127114389333
H         9.43152778090052    8.36263912911735    3.17819892162792
H         8.53919986591482    8.57172575960739    1.66318644482262
C        10.47969873886183    9.50035666756003    1.67437781009368
H        10.90780081500382    8.60539509576608    1.21625855846758
H        11.19696564595456    9.87800730488187    2.40136646221009
C        10.27148212521848   10.56818766669426    0.60367231412319
H         9.79960534292579   11.44439082996274    1.05297537275891
H         9.60941530252274   10.18577107429707   -0.17714735858636
C        11.59799545066450   10.98753217571153   -0.01864597377061
H        12.09711121868982   10.13371557921373   -0.47211631012553
H        12.25455746574574   11.41033523010375    0.73862327113099
H        11.43637673172385   11.73882500369112   -0.78733354848766
Cl        5.30062132261428    7.85976110034340   10.38537599257221
Cl       14.78511838904492   13.94251800070559    2.39935788785672
Cl        4.05665805298254   14.06164714386540    0.56029641180476
Co        8.76373490213457   10.79392987981165    4.82246276559161
N         8.96179000621241   11.44667286846560    6.63011872708500
N        10.52216938578793    9.99396924879024    4.97817725680594
N         8.46380574209922   10.18380585901662    2.98853350635076
O         7.89449557235951    9.21486996163925    5.34622529133357
O         9.41902017671414   12.37556082226691    4.03556120407544
O         7.10542443480967   11.67478379457910    4.91066128036558

