103
CSD_code = MOCFIU | q = 0 | S = 0 | Stoichiometry = C38H50N4NiO10 | MND = 4
Ni        4.49675525799580    6.72758188494400    6.19362927746289
N         5.57109367634581    6.38103036810626    4.70814977742768
N         3.12624839557918    7.07798270203820    4.98113141367057
N         3.43938499794255    7.14150711488790    7.67080056825238
N         5.88518076263699    6.44317753212419    7.40702919095797
O         4.50035862622416    4.29000474132449    0.38259989915551
O         4.51684742569792    1.60949600059684   -0.43158984987013
O         1.64033587020421    0.73473902814330   -1.34631535442935
O        -0.57639677229518    3.36147800811947   -0.15406749212124
O         2.00818636198676    4.92371610295685    0.70082455304353
O         3.35360460458824    5.20978802244341   12.19643004686793
O         1.11658745520552    3.60861712965779   13.64398142215069
O         3.66425154962637    1.22805244354657   14.69086018444806
O         6.20771480792009    2.02043738463190   13.03794868169284
O         5.85103894825366    4.58406333454043   11.96632864039557
C         7.64201963829271    6.70861103882071    5.82781423943243
H         8.69669282895986    6.89779156756043    5.70072758753430
C         6.88445321153459    6.55801809201778    4.66440126371840
C         4.75903832642068    6.05886185799369    3.61415147122952
C         5.13434642271863    5.31838327125278    2.49694664288369
H         6.13860081050926    4.94539671175378    2.40784269345852
C         4.20493978301029    4.98458150208598    1.52214910386663
C         5.67443176612543    3.51706540762751    0.34965681070751
H         5.79923065042825    2.96056406284430    1.28636461650708
H         6.55888269928579    4.14757607809283    0.17429332525582
C         5.51720934939526    2.52417893003094   -0.79643882320761
H         5.22602992945353    3.06934433286157   -1.70619584913708
H         6.47209696371949    2.00747209387768   -0.98473076706423
C         4.09567508450881    0.76733170159490   -1.47668367572535
H         4.88552270565981    0.03684484862977   -1.71393597400643
H         3.88165125697684    1.35102173663214   -2.38404632213493
C         2.81959597086856    0.03839057478623   -1.03908923793435
H         2.73812993278434   -0.90770117704159   -1.57982305657296
H         2.88895740841075   -0.15916783813940    0.03904817939779
C         1.35933807961161    1.85297045427196   -0.52146320287290
H         2.10793684488042    2.64529734390965   -0.64176236487048
H         1.34741619618704    1.55369778186906    0.53582050595695
C        -0.03466794495140    2.33356528323340   -0.94474661221907
H        -0.00070659707236    2.62748512792777   -2.00251435313498
H        -0.72957813094041    1.49539616003093   -0.84509406716514
C        -0.10356732520172    4.67001328696071   -0.39379029460161
H        -0.98317989934831    5.29755479969061   -0.58726950688658
H         0.55590787658094    4.70298763348493   -1.26578490509662
C         2.85723865224734    5.34786931303799    1.68370462991361
C         0.64277506232242    5.24442537955738    0.81521685922475
H         0.51363325694627    6.33636518393887    0.83882430286725
H         0.21029460095600    4.80941262621263    1.72538096507189
C         2.47063092066721    6.05815551299612    2.81152251811074
H         1.42670249407395    6.24426251873163    2.98600139087409
C         3.40718864308202    6.43925843719483    3.76818330728036
C         2.12299766797772    7.92008750056476    5.18785075280470
C         1.80794810318818    8.38154834812361    6.46737129286470
H         1.01009402815306    9.10383469254747    6.54317008876005
C         2.41085499612990    7.97839512238971    7.66054214597027
C         3.99530677540012    6.55975674265438    8.81578046830734
C         3.30653576702360    6.23129792055442    9.98017968686254
H         2.24962865529777    6.41509683607077   10.04332601701101
C         3.94788595386154    5.57786466289975   11.02267306501953
C         1.98785554025578    5.49791750950689   12.37408128294969
H         1.37951399998027    5.01919747717692   11.59619805847409
H         1.82412389564298    6.58528276724505   12.34570088854099
C         1.54542990879561    4.95129834247919   13.73476506407218
H         2.37004709671223    5.06019028011392   14.44473501929786
H         0.69072212472825    5.54478720580032   14.08623042757310
C         1.82242519431005    2.66441770275432   14.40955586467024
H         1.16368670629151    1.79444416339216   14.47699974418008
H         2.00356160158182    3.03698976016751   15.42670803303530
C         3.15991703595169    2.21484995728215   13.80666929304666
H         2.99660424419499    1.78644883437617   12.80851060203620
H         3.85212634473469    3.05952076717472   13.70312707285244
C         4.78031984781360    0.51453708256609   14.22759700972851
H         4.61810055004639    0.15651016242786   13.20185957776447
H         4.86999897826081   -0.33956624064929   14.90341288993940
C         6.08315921943221    1.32239175251126   14.25297888744598
H         6.05500723183300    2.02175361203201   15.10151282397258
H         6.94256123897235    0.64673526174024   14.39023632162723
C         7.21703460839669    2.99593088871205   13.03633355081040
H         8.21486881198945    2.52831178110001   13.03512031948278
H         7.13051977860261    3.63879582426894   13.92456481460432
C         5.29922309428595    5.21626439944502   10.88785119773859
C         5.97552856260513    5.49152789224325    9.70814470155248
H         6.97324521055639    5.11309951755077    9.57849580595887
C         5.34805508653086    6.17857682900576    8.67257856196584
C         7.17245897579817    6.61566480119032    7.13972144513211
C         8.20680912903854    6.80190951112203    8.22136849651182
H         7.75618712293214    7.19020594261525    9.13114483589744
H         8.95904932584480    7.50721886730556    7.87450621036947
H         8.71503493664950    5.86447717151346    8.44520790065156
C         7.64137415234624    6.68789983063630    3.36649552257548
H         6.99198221256633    7.03808669769216    2.56822982854725
H         8.08739924217250    5.73769950521446    3.07436263100364
H         8.45104148242342    7.40252358253274    3.49836450985417
C         1.30786705893652    8.50064756126180    4.05967948564854
H         1.86518228408400    8.48685365987053    3.12648316390754
H         1.05349489678990    9.53061521434449    4.30099363593550
H         0.37421662361428    7.95517147790183    3.92682685570079
C         1.87268755048236    8.61516401178329    8.91716925304076
H         2.63003388057056    8.64462926245423    9.69639559607729
H         0.99927067901794    8.07946794819124    9.28738266648653
H         1.56106764158307    9.63302793918222    8.69228869759318
C         7.03723891558708    3.85165731181226   11.78754766917017
H         7.90338086518641    4.52035344206027   11.67227968002135
H         6.96017572781708    3.19557747070048   10.91176822521307

