26
CSD_code = MOCGAO | q = 0 | S = 0 | Stoichiometry = C13H8AuCl2NS | MND = 4
Au        0.40609905684656    8.28124873760760    4.30876168476611
Cl       -0.94722165297924    7.72231299473726    2.65192936014200
Cl        1.68787719655391    9.50537682102666    2.83122401468606
S        -0.69633514700294    6.62286248498371    8.28288934390305
N         1.63467837794115    8.77546690466366    5.87117347408239
C         2.71832492929764    9.54067237969921    5.80812283416713
C         3.47986497063717    9.81367104706924    6.92697225342504
C         3.10021278586058    9.26987652598807    8.15045764180848
C         1.97483174376517    8.47504453248501    8.21322049284972
C         1.24630119614769    8.23853643487585    7.04588328754183
C         0.06568223686919    7.44662976363012    6.94700181176688
C        -0.57392667173588    7.27780727349157    5.74545066087142
C        -1.72785089726826    6.45723729911553    5.86824800383797
C        -2.64980479198605    6.04032970881926    4.89970310318807
C        -3.70406582604877    5.23622519420210    5.26463112905113
C        -3.87615909414688    4.82439767352268    6.58707368673531
C        -2.98664267686812    5.21521889295622    7.56566076837522
C        -1.92175501120447    6.02512645672408    7.20384776911025
H         2.95947225603374    9.93086438131439    4.82834721184282
H         4.35219504771008   10.43977320127435    6.83892739223269
H         3.67845484463337    9.46705305953598    9.04021304028996
H         1.63965710898717    8.03027050431467    9.13693434441104
H        -2.51684998487986    6.35855114236332    3.87931759923102
H        -4.41202497650919    4.91699493556141    4.51537363481779
H        -4.71271948576234    4.19415052573247    6.84800948775637
H        -3.10639553484870    4.90450112433227    8.59192596908149

