124
CSD_code = MOCHUH | q = 0 | S = 0 | Stoichiometry = C49H70N2O2Zr | MND = 6
Zr        5.32252882546636   -1.53678642163515    5.07428944303184
O         5.74455835487274   -1.99623679057127    3.24225976209501
C         6.89367585699670   -2.31145932885684    2.67267251974447
C         7.31193395779777   -1.84862380036781    1.39756801854607
C         8.59791988325922   -2.15657170939155    0.98476417720264
C         9.48087928789116   -2.96303433463385    1.69670647046794
C         9.00615562648196   -3.52545969289461    2.86899468521936
C         7.74596662108430   -3.21139562166821    3.35189107107134
C         7.18638790096865   -3.95876998631607    4.53314851673575
N         6.82773847725348   -3.11809773966607    5.69132986044909
C         6.31818030138815   -4.01405467178231    6.73999412349391
C         5.80700199155112   -3.38245099903587    8.01580007163045
C         5.84241107901910   -4.17877889007578    9.15319637503896
C         5.30223573814484   -3.75826969366885   10.35332955763589
C         4.74046005123817   -2.48382544172564   10.38316533801540
C         4.69718420512075   -1.64385227690533    9.28778472619681
C         5.22116585652546   -2.10404747237835    8.05103925689347
O         5.19667629812356   -1.35435717962419    6.96299865836774
C         6.39513533303986   -1.04235553748713    0.47816125530943
C         6.38244956173033    0.42081971995749    0.93675396495834
C         4.97089353830338   -1.61349116097859    0.50173665403293
C         6.86132944019467   -1.07655845184343   -0.98513341921113
C        10.86944585220467   -3.23445864413016    1.13849655197970
C        11.70802629529942   -4.12672919530802    2.05834630939919
C        11.61416895366800   -1.90415037340296    0.95980196424748
C        10.73791233940730   -3.93977781595562   -0.21886275688183
C         7.95073642120124   -2.27611677093689    6.14557119918073
C         9.25021268562912   -2.99300921980753    6.53671531673955
C        10.25134407152770   -1.95496615916359    7.05231851510379
N        10.36799128311814   -0.81213706243310    6.16188030009159
C        11.00269876484486    0.30977270033856    6.82157733933122
C        11.04421862269481   -1.13763223972788    4.92270858580494
C         5.29262936920893   -4.61130736023784   11.61260120540815
C         3.83804572617116   -4.85876803094563   12.03593734628653
C         6.04045889328782   -3.87553861639590   12.73342919819530
C         5.96555193583300   -5.97117073164970   11.40652664158495
C         4.14822188464342   -0.22533072054672    9.39556736661852
C         3.56693343199937    0.09336766204826   10.77762360514921
C         3.03652683871822    0.00614042904834    8.36260506312253
C         5.31478875342546    0.73792528930177    9.13717479034608
C         3.09278229873112   -1.81416085214941    4.73765764677892
C         3.16878019403948   -3.19467505245221    5.18196842596381
C         2.85004945112242   -3.57741313487994    6.50373514220372
C         2.94071818233082   -4.89124484142798    6.91351424535823
C         3.33968867986473   -5.88495302041080    6.02827448667299
C         3.64424032190780   -5.53963315518502    4.71693400305039
C         3.56677960682937   -4.22589191974007    4.29764296741113
C         6.34877347693298    0.46817097596968    4.88695857053762
C         5.10383593443002    1.23422329916115    4.96213834547513
C         4.85141401457804    2.15856342766820    5.98909003668102
C         3.63717871173092    2.80747285789780    6.09616734162212
C         2.63089441504771    2.57943498956551    5.17143804662963
C         2.86649839519596    1.70328864064623    4.12132846963765
C         4.07394071032652    1.04051701156970    4.01313925829021
H         8.93603034843355   -1.76264256533795    0.04240299335050
H         9.59905498834110   -4.24321589376760    3.41611843843822
H         7.90223886436377   -4.73906845766699    4.83866424633124
H         6.26137233382999   -4.46348218942102    4.20959236967958
H         7.09922883618896   -4.74465486158462    7.01249751981350
H         5.49126180147009   -4.59067109507466    6.29874253915493
H         6.29562755143813   -5.15421774760148    9.06619677577683
H         4.32306286712945   -2.13939912923767   11.31321432847974
H         7.39220542896604    0.82786123993805    0.92722237760126
H         5.98642276434365    0.49956953128763    1.94437886030468
H         5.76130197307278    1.01997265536553    0.27362307749159
H         4.32050352445768   -1.01826285919528   -0.13656492834894
H         4.56510304198591   -1.61172711720581    1.50988328692492
H         4.97565868482510   -2.63758592113729    0.13269281457111
H         7.02976739808854   -2.09851623280788   -1.31734990039254
H         7.76961118621988   -0.49770437196794   -1.13454411258863
H         6.08945182700086   -0.63789577000622   -1.61441492711507
H        11.83171693850854   -3.67178282031420    3.03846300078634
H        12.69676477204419   -4.26578033221986    1.62569569891961
H        11.25327575766089   -5.10794564157068    2.17322507274172
H        11.08351749226032   -1.24251915837912    0.28136815694423
H        12.60790224243188   -2.08184112039428    0.55363497598533
H        11.71693194366298   -1.39940288170038    1.91789471038300
H        10.18316367298515   -4.86893116494727   -0.10669070956992
H        11.72244406621492   -4.17054466683996   -0.62073943031374
H        10.21427512334943   -3.31637698307909   -0.93788149508791
H         7.60757393444896   -1.70282530795156    7.01647213412634
H         8.19402569598175   -1.56984782658273    5.33676159588487
H         9.67164243491211   -3.51767031753919    5.68025098543497
H         9.07479769524327   -3.71689503668974    7.33416935729016
H         9.89395588457454   -1.58088548489618    8.01547867260735
H        11.22922078542842   -2.44204870960816    7.22230500601943
H        10.42709610377386    0.58014671124818    7.70557392315733
H        11.01106100706145    1.16042444909132    6.14214548268554
H        12.03888683821607    0.09701788084712    7.12823735910314
H        11.10419267955630   -0.23932617872201    4.31031939503839
H        10.47277958324710   -1.88134357228775    4.37105748748002
H        12.06604379351834   -1.51736251432898    5.08632766035546
H         3.32510938927413   -3.92516739721561   12.24850598975158
H         3.80498488056692   -5.47828859523597   12.93000589891409
H         3.29900761716369   -5.36941226703298   11.24088299826748
H         5.56322568441108   -2.92966088245433   12.97271947514780
H         7.06553371149582   -3.67271300745525   12.43025848051026
H         6.06029713466957   -4.48407683150541   13.63535493341096
H         5.92920246369585   -6.53906161932069   12.33421264426920
H         7.00961844899400   -5.85158776155997   11.12626582426172
H         5.45384470095515   -6.54736142820245   10.63936379705666
H         4.32499181648564    0.02394134935871   11.55454850757286
H         2.74110654632281   -0.57147273280909   11.02092940120743
H         3.18656838222714    1.11301752143110   10.77505607986275
H         2.65582755493701    1.02206779357074    8.44689856287747
H         2.21394428126282   -0.68497340988087    8.53986266437450
H         3.41220632763270   -0.13377965591296    7.34880353868600
H         6.08723172329744    0.60124363268748    9.89270947400809
H         4.96836666779019    1.76832048000460    9.17436598428280
H         5.74218740945994    0.54485758714196    8.15629757966289
H         2.43871966185160   -1.19057238098670    5.35705596061129
H         2.84445712191497   -1.72458842680682    3.67328553041913
H         2.50631708159929   -2.82264452024865    7.19981874005681
H         2.68847177787172   -5.15019052271221    7.93201107245576
H         3.39759039695908   -6.91403769073163    6.34919396972730
H         3.93432845133470   -6.31046157555072    4.01464677127032
H         3.77476862551097   -3.97569823490684    3.26019357555968
H         7.08213945131017    0.79572488007678    5.63530446274292
H         6.80446730899544    0.47857933345559    3.88803071447434
H         5.63615601876774    2.37883535161005    6.69983054103274
H         3.47730492039250    3.51242745688135    6.90036625323103
H         1.68270354558679    3.08853996886351    5.25613254121949
H         2.09839986722658    1.54105768602560    3.37718764531414
H         4.24809446255103    0.38596247697405    3.15941897330286

