122
CSD_code = MOCJET | q = 0 | S = 0 | Stoichiometry = C51H66N2O2Zr | MND = 6
Zr        3.49474350580628    4.53157930152675    3.73526716255005
O         2.55221077041269    6.20887910837536    3.60733274897703
C         1.73660841013835    7.06184643889903    4.20344748056147
C         1.24943809099600    8.22886366075577    3.56064674084115
C         0.43455314342003    9.08625565429494    4.27618622915478
C         0.06380900512937    8.87576741553731    5.60196523634657
C         0.54280688660246    7.73254095808426    6.21610197754404
C         1.35835125011887    6.83881326115416    5.54063407768125
C         1.77708786072692    5.56620656424372    6.22568391738375
N         3.22065304288037    5.26436445200563    6.14361498326787
C         3.44965386026774    4.01830941225910    6.89786982836227
C         4.78532315555763    3.37358050863594    6.64952354658395
C         5.78329829979169    3.37350741147869    7.60501789569850
C         6.94595362404000    2.63524110806637    7.42811362355176
C         6.98301945273425    1.76975739290286    6.34000329538891
C         5.98846495375630    1.70363694315887    5.37636902903465
C         4.92213636780431    2.63432725530000    5.45164861575205
O         4.03480903910460    2.80970596556241    4.49468785774127
C         1.62801630171628    8.51693243809003    2.11163828757673
C         3.15229075689716    8.67921523409689    2.02023561514655
C         0.98854400940370    9.79623291825487    1.56078792477559
C         1.16783066629891    7.34809033175346    1.22991683942296
C        -0.83752962145530    9.88461200056583    6.29736338243753
C        -0.15402433246566   11.25942953112851    6.30041618220007
C        -1.13792430545387    9.50062505096707    7.74892362443106
C        -2.17121115255714    9.97094239480593    5.54247229786553
C         3.99900102744771    6.37404994972982    6.71329003520701
C         4.81396124133325    7.13127555860447    5.64746418846237
C         5.99566277262466    6.30314418995170    5.24740195941151
N         5.75054193013935    5.26047844138742    4.45007415340441
C         6.76796787986548    4.46552786586731    4.11825886129103
C         8.06411341089540    4.66865074181524    4.55972821579860
C         8.32347052106654    5.75409532308808    5.38180398245568
C         7.27051354244003    6.58027203155747    5.73281345101169
C         8.05936760937883    2.70765860356302    8.46235126061241
C         8.38481038127263    4.17569220394417    8.77274518144761
C         9.34870389300287    2.03700568063004    7.97889563617351
C         7.59167230629427    2.00464423715262    9.74438851813329
C         5.95199554721141    0.59080942283832    4.33316606618922
C         7.11218691916502   -0.39945085425200    4.47484010852986
C         5.97413583178257    1.14398748058085    2.90477023339622
C         4.63859916750661   -0.17908159916298    4.54486591263415
C         4.49602851546067    5.09063776328646    1.73339967249028
C         5.27371812224256    4.07338869791339    1.03421061297507
C         6.67559562370711    4.12424665273338    0.96595029506896
C         7.40129279458618    3.16269704771543    0.29015769857303
C         6.75673864242101    2.12330080275037   -0.35958546756478
C         5.37044270470647    2.06547476838608   -0.32845866271978
C         4.64263688505353    3.01838692097161    0.35174350632658
C         1.86407619984097    3.36848178670340    2.64370038295720
C         0.82701312106894    3.39254775707851    3.66187844393040
C        -0.19161060553715    4.36768017919831    3.65855871206697
C        -1.15768163841680    4.40221101406937    4.64312874881498
C        -1.16289583366724    3.46051930419721    5.66325188088920
C        -0.18370954556684    2.47619192579236    5.67863695803591
C         0.79149655488642    2.43854941021244    4.70134973936634
H         0.06279183228005    9.96925135556744    3.78605460634380
H         0.28083974108252    7.50269429725449    7.23752769064264
H         1.23681367827604    4.72875178226903    5.76842038361273
H         1.47488388868063    5.62228450707888    7.28683445596264
H         3.32157730758859    4.20202033226967    7.97896302629770
H         2.67801936140361    3.30077682015181    6.58200779571160
H         5.63054925409938    3.94221015787563    8.51239773386088
H         7.82043775116552    1.10239758809294    6.24948449941971
H         3.44837156013845    8.88516432431089    0.99353784866021
H         3.64929172641753    7.76938397270614    2.34836217854656
H         3.47851837886219    9.50766479440066    2.64759291516713
H         1.28877491242446    9.92385535919874    0.52241180667106
H         1.31684954464553   10.67404149518367    2.11305414709887
H        -0.09708839530386    9.73907005849233    1.58947627011710
H         0.08194189677856    7.27299936215322    1.25109758781292
H         1.59304276807022    6.41307931162632    1.59043726692253
H         1.48343236824447    7.50546023760937    0.20007128846364
H         0.02860037586504   11.61215237528148    5.28942255129478
H         0.80102913449903   11.20292401834645    6.81890082071236
H        -0.78029991715628   11.99036452970062    6.80806329970769
H        -1.78319030261761   10.25312650806485    8.19818855725799
H        -0.22413836267972    9.44767566634279    8.33658709583185
H        -1.65127893681407    8.54350221934707    7.80046071876094
H        -2.02445981196546   10.30346411950915    4.51885944381430
H        -2.84019900175199   10.67273661359246    6.03671295372620
H        -2.65000671403136    8.99451754490052    5.51755673890152
H         4.69726989255663    5.99106602654835    7.46596734193105
H         3.32540377340038    7.08809938614075    7.20294050109671
H         4.17833368538686    7.31828145910016    4.77767645922691
H         5.14420033134129    8.08504852847058    6.06237023812145
H         6.53290975565261    3.64232330995553    3.45778863321289
H         8.84989811947445    3.99525793070455    4.25834238576256
H         9.32384940115584    5.95691013622661    5.73524313097466
H         7.42946895134701    7.43401156695569    6.37389913518874
H         8.65444672134121    4.70002880700344    7.85872657503598
H         9.21955533705172    4.23580022543950    9.46820175094444
H         7.53861995267483    4.68695743405004    9.22257349001488
H         9.22087969244439    0.96262084448824    7.87666134627213
H        10.14323543998609    2.20769260541494    8.70279718112872
H         9.66270992300951    2.44975136855455    7.02271003239812
H         6.69995120573861    2.48069312517646   10.14421899313266
H         8.37125857519774    2.03924935070754   10.50285639071655
H         7.35539273511572    0.96351438326342    9.53634430785750
H         8.07052462476058    0.08744487421008    4.30770963641438
H         7.00281607583161   -1.18332214006497    3.72818276156978
H         7.11386103886824   -0.86815250076033    5.45622147349377
H         5.16674758034833    1.86151980404049    2.75548165832649
H         5.84055591657018    0.33256295051158    2.19209203509809
H         6.92877575780464    1.61937564957694    2.68731543932378
H         4.58629104317766   -0.56952076068416    5.55965154666351
H         4.57049533456913   -1.01087329989275    3.84688106423298
H         3.79165299743032    0.48148122375803    4.38020616150037
H         3.61649734682194    5.36102103593765    1.13431096621397
H         5.10845882188447    5.98965441205723    1.90303378712295
H         7.19635411083553    4.95258526732989    1.43356807264005
H         8.48043631325250    3.23392709094552    0.25357532749266
H         7.32442826039806    1.37752842618303   -0.89592682737104
H         4.85696192739644    1.26963147759625   -0.85030275614143
H         3.56010529125800    2.97014175572299    0.35330282100052
H         1.53502470608110    3.84483721113087    1.71287861060408
H         2.24430413048346    2.35577873016439    2.45912354071481
H        -0.21573489167441    5.09872882981908    2.86058458357806
H        -1.92294466518953    5.16507739785029    4.61341209436049
H        -1.92632850894783    3.48343086019229    6.42626765352065
H        -0.19058299854621    1.72524966526769    6.45769467234797
H         1.53755369204916    1.65058017931572    4.71418541695776

