67
CSD_code = MOCKUK | q = 1 | S = 0 | Stoichiometry = C33H30N2PPt(1+) | MND = 4
Pt        4.93726293778099    2.20092660755167    5.25286304956449
P         4.99790679687021    1.44002669564887    3.11512114911573
N         4.90430911062247    2.73350592975120    7.23595405153941
N         3.18560095901088    1.06692096480146    5.99818754230006
C         6.83830304124258    2.93248748784959    4.97150459306896
C         5.47677384410089    3.72520913482812    7.89833796214280
C         5.83270183678374    3.57596615736041    9.25112630424358
C         5.58753178770245    2.39589714120362    9.90381501109500
C         4.87909930231530    1.37683639579014    9.23926525364919
C         4.48221142691034    0.15888788921331    9.85753009260793
C         3.68803141607295   -0.72549764356147    9.20417158847427
C         3.20341951882381   -0.44819850259451    7.89569530023573
C         2.25211634172132   -1.24955522314812    7.23721010337624
C         1.74200070755675   -0.82533575190607    6.04001061449163
C         2.21358274671553    0.36194038887727    5.44853929847334
C         4.53007686508994    1.61170639198820    7.89480965059942
C         3.64909189844582    0.70492101064091    7.21964330926820
C         5.68675542745457    5.02321615865430    7.19650472437474
C         1.55548245346546    0.88037773726053    4.21709598892264
C         4.39294330553953   -0.27389842074632    3.13693313858786
C         3.54828398918502   -0.84740551573447    2.19683672919374
C         3.15679591614736   -2.16815506485052    2.34454161238257
C         3.60332183004274   -2.91554288566809    3.42210487355686
C         4.44919224742222   -2.34636433378583    4.36224876102880
C         4.84006840110662   -1.02920888717362    4.21999591775348
C         6.53647906845922    1.31490241084300    2.15155406029594
C         7.23658549226893    0.11963678958634    2.02908038422761
C         8.40884611899073    0.07957499976706    1.29410557920628
C         8.89035065152055    1.22643189447390    0.68542989901880
C         8.19894252906199    2.42153661393366    0.81234822479368
C         7.02808874950109    2.46903461887257    1.54410166502090
C         3.96533076542328    2.46006388332873    2.02898437835620
C         3.83755506227025    2.22486551333278    0.66377334356032
C         3.05186348700981    3.06633625754163   -0.10364613246380
C         2.41029121323476    4.14820339164168    0.47977223398467
C         2.56059132274155    4.40326006387775    1.83419832463888
C         3.33798632767193    3.56119359192880    2.60733595713913
H         7.47167286829248    2.15246916856479    4.53865531090788
H         7.27875209412580    3.22395640624653    5.92604714616740
H         6.86545886492299    3.79033477045550    4.29727246847125
H         6.31420383669373    4.39860489257776    9.75559598609532
H         5.89448394644315    2.25075897284661   10.92824289810291
H         4.80890184451805   -0.03050386187124   10.86834185940846
H         3.37035143099581   -1.64034612641889    9.68048384470294
H         1.90874425581438   -2.16164745237855    7.70116863355019
H         0.97076903801064   -1.38520008313432    5.53556658218698
H         5.34441023793540    4.95307875363687    6.16382367993678
H         6.73466554681246    5.31584957127215    7.21197576734667
H         5.12179492097676    5.80184431982691    7.70834067482964
H         2.15743532718033    1.65739969555999    3.75281384649937
H         0.59134892485813    1.31100914594698    4.49077687197692
H         1.37237154585370    0.08003112687096    3.50498012588890
H         3.18766997567749   -0.26471024052240    1.36215981905179
H         2.49947072846697   -2.61578101816996    1.61440406439892
H         3.29355964130431   -3.94368484776282    3.52953913839233
H         4.79997274365791   -2.92972415790062    5.20052129269508
H         5.50348548235345   -0.56395898160353    4.94659742473927
H         6.86543345984034   -0.77901687090639    2.50064607087949
H         8.94623983481866   -0.85143796962152    1.19618072328096
H         9.80344748073327    1.18963785238302    0.11168639379690
H         8.57364744201039    3.31633483924876    0.33928426324945
H         6.48407263582428    3.39796129261298    1.64576953076340
H         4.36698197727899    1.40167730114451    0.20467746880605
H         2.94605838018435    2.88368847327486   -1.16213082634502
H         1.80264315701573    4.80226685751002   -0.12624968058505
H         2.07736771485542    5.25872072647537    2.28086164347136
H         3.48590976628773    3.74868355243263    3.67318243946058

