43
CSD_code = MOCLEW | q = 0 | S = 0 | Stoichiometry = C17H22Br2PRh | MND = 8
Br        0.16961546240711   11.58830921204916    1.70730166708215
Br        0.74191595942028   11.85484677884313    5.14397964620747
C         1.46239778460099   14.77852606111502    2.40989959480841
H         0.56893216073337   15.14887334945271    1.92955952864777
C         2.60526696523603   14.24173709777556    1.73807398047431
H         2.73191534236493   14.19282936816923    0.66714159873958
C         3.60951347186731   14.00466395569379    2.70897816430885
H         4.62781539731914   13.70329521654958    2.51511387792990
C         3.06697520762095   14.30535767361129    3.98112233575783
H         3.60732174348530   14.30723904057367    4.91591831071133
C         1.74472115808115   14.81660175502636    3.78273268700226
H         1.10769804406308   15.22160532170552    4.55513494333179
C         2.35277803131705    8.57972869375970    4.96962823268408
H         1.87366342831819    7.60973803440877    5.08886329945511
H         1.94256115630407    9.24675301079776    5.72265754893371
H         3.42139598292041    8.45782398876943    5.13847765022985
C         2.06773087126501    9.09471649062958    3.56591918640411
H         0.99726594343823    9.32119259408730    3.48316957585264
C         2.44214461902201    8.07429447796606    2.48459153945471
H         3.40868594514117    7.62167785604630    2.72427790805990
H         1.69519774057130    7.28150472259416    2.44425046427823
C         2.53674197845276    8.82215185570911    1.16285043709160
H         1.55325586777469    9.19690068415270    0.87537228796014
H         2.91148573119990    8.18330292481508    0.36196086843089
C         3.49231051630483    9.98737745552308    1.41643942667317
H         4.49122468436364    9.56520185891261    1.58502961465698
C         3.54825012242607   11.00220763261494    0.28537982192039
H         3.88224919047109   10.51919483373183   -0.63145396369450
H         4.24059768739241   11.81107019462526    0.51763731066203
H         2.56060467167086   11.42141838977961    0.10361910448705
C         4.46004469047292   10.86614494338091    4.05149759240403
C         5.72164636913936   10.96704626390729    3.47196960537599
H         5.84945244854839   10.86316400386001    2.40445795849346
C         6.83350257216488   11.21340949403071    4.25836755643702
H         7.80755634328187   11.28616882897601    3.79688357844161
C         6.70053714595097   11.37387791492300    5.62698700661463
H         7.57115526026034   11.56524492191350    6.23621387212180
C         5.44443267685107   11.30409300797469    6.20758936437425
H         5.32972849921871   11.44582987597448    7.27171450169180
C         4.33005547112970   11.06416675124105    5.42600204173336
H         3.35173452047116   11.04053492040319    5.88203554671211
P         2.93917931756462   10.66726848847606    3.06106601922609
Rh        1.85214181939277   12.65571005544953    3.11888870782854

