85
CSD_code = MOCMAU | q = 0 | S = 0 | Stoichiometry = C43H26F9IrN3O2P | MND = 6
C         2.14161297674750    3.60629869555092   13.09954321959796
C         1.70500209925005    3.97037710969381   14.49001209790996
C         0.35763605638314    4.01990837452399   14.82442530529051
H        -0.39116327575785    3.78871957259786   14.08507150990485
C        -0.01309650830431    4.36043947122939   16.10957067935325
C         0.94134369133392    4.65419360806746   17.07940752309732
C         2.28626975447985    4.59444443433906   16.72845489493486
C         2.67177841371613    4.25649899431399   15.44630571657110
H         3.71791646396466    4.21322803016180   15.18505984073965
C         0.91755599943017    4.36090495422568    9.61328417428112
C         1.23992247628537    4.24364273435007    8.26917632486513
H         1.71204117677319    3.33587152872456    7.91994247425248
C         0.96392130817470    5.28381303621253    7.40049326540973
H         1.21387415441058    5.19458015281394    6.35339730021279
C         0.36170976785309    6.43791991226012    7.87501196821441
H         0.14162194295878    7.24901655312795    7.19645643336223
C         0.03772291269739    6.55404153821387    9.21736216624915
H        -0.43402897117253    7.45446650312838    9.58293226300302
C         0.31340753968962    5.51522014123054   10.08797092017729
H         0.07378941290708    5.58865530366027   11.13868229498461
C        -0.20108837482685    1.88752137978136   10.53501040118234
C        -0.10469351440993    0.66614361538553    9.88778034299073
H         0.85164939917495    0.35344735845537    9.49319481481440
C        -1.22668813075357   -0.13333734987985    9.75509850317951
H        -1.15475781830077   -1.08676970353974    9.25223461056051
C        -2.44150202027952    0.29146260046712   10.26711184530274
H        -3.31690875209541   -0.33288529380787   10.16444356833482
C        -2.53823689669968    1.51599245414589   10.91058852602464
H        -3.48786531489864    1.84357541474021   11.30781660241557
C        -1.41890384883221    2.31614327415374   11.04229860345429
H        -1.47100652230925    3.27251702318519   11.54072080281661
C         3.92667847389349    0.12834884805643   12.10028442096680
H         3.10215486811422    0.19727098541293   11.40410630965766
C         4.07371300285514   -0.97528033330889   12.91985378013920
H         3.36120695839908   -1.78275358483054   12.87204373417373
C         5.14993412759264   -1.01520937889664   13.79491706767218
H         5.29613548122307   -1.85983649629096   14.45055519981548
C         6.03330239182826    0.04807883575736   13.81109624607614
H         6.87674632693540    0.04295008641924   14.48165761187878
C         5.82822920806096    1.13119978578525   12.95989123926440
C         6.67893900441103    2.31347735763496   12.87150438024105
C         7.83660387792979    2.50731901967824   13.62150227716329
H         8.16559766794982    1.76318561503272   14.32989791542396
C         8.57957613227575    3.66096656400657   13.46926917974156
H         9.47704770412462    3.81890027910989   14.04652231792235
C         8.15777805425584    4.61930052006332   12.55686511363372
C         7.00161884265087    4.43815283774545   11.80665894919714
H         6.71280601884115    5.21133300921068   11.10925621098130
C         6.23798650406350    3.28613318216542   11.94555093429595
C         8.92676094334809    5.89666080528108   12.37824789038781
C         3.67785560810055    5.64216283569024   10.60909520674887
H         3.45596506259919    5.61534125066400   11.66711117300596
C         3.41573875332500    6.77421218682933    9.86086726835669
H         2.97266869932404    7.63911317009062   10.32641392666266
C         3.73533556127010    6.76582618750836    8.51116362169437
H         3.54230154775840    7.63020344538273    7.89494621416014
C         4.31435005790555    5.63308578348519    7.97136258942454
H         4.58137457797102    5.60469001835846    6.92789968926793
C         4.55626244376610    4.52616034955599    8.78106652239523
C         5.18303158724441    3.28100799865034    8.35214860356106
C         5.59732075483069    3.02456343445238    7.04612003563163
H         5.45676721159460    3.75875067351133    6.26811713991147
C         6.18886487232850    1.81923619790920    6.73174172579889
H         6.51351612188841    1.60789195985339    5.72454841674181
C         6.36846459767797    0.87048330784838    7.73306720530665
C         5.95482912996866    1.11520662072911    9.03501630460431
H         6.10991646989388    0.35297519591248    9.78430853800108
C         5.35379295380563    2.32193655725407    9.37368997745563
C         6.99003501834625   -0.44526103039993    7.36337943848308
F        -1.31452869300439    4.40991134121515   16.43474707145706
F         0.57233611172466    4.98468475016721   18.32401693678648
F         3.21875295139893    4.86833348681226   17.65351020155895
F         8.29376874547538    6.95169913104548   12.93304805110880
F         9.09804605102542    6.21790692774319   11.08239667661127
F        10.15005114114543    5.86807891404108   12.92468253935699
F         6.15212552342374   -1.21419682150295    6.63558314161426
F         7.34638327384869   -1.18786500950347    8.42176808305094
F         8.09641884259820   -0.30144325413245    6.61191085726209
Ir        4.47584938524850    2.84373471565306   11.09772093998828
N         1.15322599462686    3.48483074660360   12.25210289450561
N         4.77117536922807    1.15460018955550   12.11512964444976
N         4.22342841472082    4.54623630071031   10.09149787160259
O         2.47719010198980    2.18748337089227   10.26408147303593
O         3.37440842123416    3.49012956013448   12.91556037014128
P         1.25982614935232    2.94694014774676   10.70903987812796

