47
CSD_code = MOCQIE | q = 0 | S = 0 | Stoichiometry = C14H24N5O3Tc | MND = 5
Tc        8.61061988322282    1.67870171228714    0.59146005829955
N         9.24281699621225    1.04530571332662   -1.28670453253641
O         9.91756121439758   -0.09840233249723   -1.49013827103467
C         8.77128453785452    1.66746936418783   -2.29923202699008
C         8.05974702323607    2.95396590016474   -1.97639815268130
N         8.25752361768223    3.19524569984554   -0.54926354738387
C         7.85840646244505    4.51744318355003   -0.12250552204522
C         7.42493106942251    4.55162526656145    1.34946606852142
C         8.56891350907677    4.17297765683058    2.29685693559113
N         9.10547029349497    2.86032633039963    2.02205308050073
C         9.88309802651934    2.29977318522911    3.12756090608001
C        10.62875371843029    1.12106577495679    2.56127254551256
N        10.28463409216850    0.76783690560983    1.37397870349593
O        10.88221014566300   -0.22741897145961    0.77580371187277
C         8.93283190924732    1.13306449489837   -3.68006033607325
C         8.65251076141881    4.07694486058659   -2.84568502585433
C         6.56177842987231    2.74734685626280   -2.28397474867220
C         8.93094023402751    1.78174024289925    4.22583008090652
C        10.89147824160199    3.30055470162699    3.71543739512165
C        11.70016973520442    0.39622614231655    3.30525831660248
O         7.27866183769166    0.82227488433104    1.02100788973889
C         6.25917991151967    3.71759345553358    1.55785565656798
N         5.27679380410492    3.16114091296866    1.73712413978726
H         8.69080194081132    5.22849856875647   -0.24198299935423
H         7.01322652692707    4.88040993155648   -0.71967643999808
H         7.11798247291580    5.57923219010218    1.58854068646531
H         9.35256392225472    4.93849331592021    2.18860121228697
H         8.18150697648213    4.22331800732933    3.32286917089834
H         8.28709291472437    1.63113416906757   -4.39517016381778
H         9.97214790451761    1.24408462161021   -3.99202144442924
H         8.71995869688411    0.06409460280126   -3.66663157212720
H         8.10378759253812    5.00429466502161   -2.71090050268434
H         9.69319669644852    4.24212100504635   -2.57474533538374
H         8.60419495259316    3.80798225772136   -3.89666313799079
H         6.01144313352055    3.67624788505859   -2.16075456553048
H         6.41667814810983    2.39715174905423   -3.30192465528295
H         6.16271105330727    2.01309932112244   -1.58533715571058
H         9.47297888525334    1.20110632653576    4.96673951846569
H         8.43983055065996    2.60881519826118    4.73186484574236
H         8.17127839776131    1.15637579939164    3.75834121703243
H        11.52603027647456    2.80242834627965    4.44230989835467
H        11.51893380790091    3.70545039964034    2.92420243154292
H        10.38340263091745    4.11856495945028    4.21792426138022
H        11.71678932421430   -0.63708584602564    2.95989553150452
H        12.67470990836750    0.83294509098261    3.08302791147959
H        11.53690375329516    0.42728674047384    4.37839340279752
H        10.38773407860396   -0.30625124557474   -0.52310544096727

