73
CSD_code = MOCXIN | q = 0 | S = 0 | Stoichiometry = C31H37AsClNOPd | MND = 4
Pd        4.65144675104601    6.82786879400595    3.77455568150885
As        5.87482779951109    7.34456437641047    5.65510053068086
C         3.58317771607291    8.50119245509841    3.71306816329064
C         3.94534304603187    9.75695236889458    4.23381794694303
H         4.86036296122828    9.84797518561469    4.82613722679456
C         3.17422025136317   10.86078962295955    3.99374759026647
H         3.45657291959506   11.82735874989335    4.38844639799313
C         1.99165159627189   10.76518407226438    3.23201289287440
C         1.17693635146691   11.89342908338257    3.00303093415420
H         1.48176738969450   12.84139538671764    3.42368958934359
C         0.02768663745150   11.79527090755493    2.27205064401183
H        -0.59242128314678   12.66320093905806    2.10220807217754
C        -0.35630389157911   10.55624888200234    1.73879697641094
H        -1.27072597557263   10.48593778693536    1.16738846847163
C         0.41210491758906    9.44396194807529    1.93867015007102
H         0.08797702967748    8.50032006025429    1.52617184885254
C         1.61063296573691    9.50798544160518    2.68472393718400
C         2.45118093440296    8.39311947223445    2.92557917394888
C         2.16421992058288    7.00110896429043    2.39844978236854
H         1.55778245362644    7.01333412882331    1.47984882337702
C         1.41973089509739    6.23805124568837    3.50053873650843
H         2.12125599019820    6.03508025029148    4.32318094514466
H         0.99534010742941    5.30244894449801    3.14417649623648
H         0.61161209044977    6.85769872295674    3.88328482625743
C         4.13309478650389    7.02787491488015    0.98136866928089
H         5.15545400138383    6.64537593073403    0.89138354673367
H         4.17008625268690    8.10771679080583    1.14682202663788
H         3.59875938683348    6.83499413185987    0.04018881473086
C         3.32741998613145    4.94172344510622    1.78037580141208
H         2.62135562515275    4.79593233981447    0.95163073542104
H         2.99030180854550    4.37840362374838    2.65010673128259
H         4.30129041786121    4.54494126533855    1.49126321161815
C         7.64209835028003    8.13328184080869    5.63458837866415
C         8.53032112466424    7.64684067207818    4.67808230578221
H         8.19114801376650    6.87220539853431    3.99302092421340
C         9.82022001682399    8.14303937067316    4.61414010972821
H        10.51334862448151    7.76044961480368    3.87899180081024
C        10.22221268724896    9.13550402120520    5.49448032244076
H        11.22902801100940    9.52369198832372    5.44419958716825
C         9.33561708114379    9.63610801497652    6.43398527613499
H         9.65064789510457   10.41658481240948    7.11178374916440
C         8.04485420735569    9.13925813212554    6.50480833130359
H         7.34331950559787    9.52668337660971    7.23465583853464
C         4.89522911770191    7.92422755115467    7.28300590659446
H         4.50155808292828    8.93982950416667    7.35851822225708
C         5.82527642040595    7.52758437155954    8.39490377909374
C         5.90109686334858    8.33516033831146    9.64920369479934
H         6.85836265318557    8.19845030438539   10.14725206264763
H         5.11487234517180    8.02308296033381   10.33822173927777
H         5.76168068929573    9.39441655857742    9.43762678832568
C         7.26994279900190    5.54227606996668    9.06409656898920
H         8.03548237233848    5.01770880770407    8.49302536220756
H         6.66726251524223    4.80010071177640    9.59030301431738
H         7.75299040393845    6.17324145683901    9.80601782038782
C         6.40011699740353    6.34315948128965    8.15433784494603
C         5.95952285849412    5.77244187524404    6.84089581511305
H         6.52020237540381    4.89948158489177    6.50471049521468
C         4.42515297793472    5.51608060101780    6.89147945974463
H         4.11550837466435    5.16080936237719    5.88876626446011
C         3.76782958457782    6.87161996875740    7.22515731625327
H         3.04818621193976    7.15077908933292    6.44144180393703
H         3.24704296165572    6.81021015881889    8.18432049103421
C         4.15900391929444    4.43565724465449    7.91368845947416
C         4.32863932883698    3.02766809459302    7.38486818847763
H         5.09662737986055    3.01061975563114    6.61013104472858
H         3.38001249571013    2.76769443822181    6.90368109408422
C         4.63564035707439    2.02381755345772    8.48796824314943
H         5.61907772506361    2.21620192053151    8.91055078624961
H         4.61700558012685    1.00933430414099    8.09846529142244
H         3.90061792312116    2.11181048712614    9.28400946658868
Cl        5.99977378737067    4.91188097105706    3.65774822650030
N         3.46656844943077    6.35967270196775    2.10350469885407
O         3.85235909268368    4.68079429776470    9.05534805496800

