34
CSD_code = MODBUF | q = 0 | S = 0 | Stoichiometry = C14H12MoN2O5 | MND = 6
C         4.94431533333214    5.62962986398632   13.59559848784804
H         5.67311372275390    4.83968903524181   13.72471974591990
C         4.91549983707948    6.71247886318512   14.45564981749316
H         5.62542152599312    6.77360267898389   15.26498621547044
C         3.96666795470753    7.71338849299111   14.26481913235379
H         3.92270425981267    8.56803853013441   14.92147255283428
C         3.08347685323663    7.58199633321406   13.21188682797709
H         2.32261242136152    8.31753078824125   13.00347037221204
C         3.18340161423481    6.45746611366370   12.39352462018922
C         2.32094548057466    6.20871982387450   11.26611422528541
C         0.72025290724408    6.45442571868738    9.74797362554569
H         0.80389719470089    7.15339080016697    8.91143826822404
H        -0.33653495698063    6.28501863165519    9.97104413914869
C         1.49986077988103    5.12968359890978    9.50117983423563
C         0.60778753852759    3.89821969054284    9.64909767427137
H         1.21266312737042    2.99784617337856    9.56460292783740
H        -0.15042736499940    3.88966127673733    8.87017060322358
H         0.11806312198105    3.89659746911194   10.62189758799449
C         2.21519212157865    5.12319816257553    8.15120281096842
H         2.86960324039971    5.98923631032850    8.06215392522999
H         1.48885096809549    5.14279977115989    7.34266314064374
H         2.81909738457809    4.22253731896305    8.06313253367202
C         3.84966004047404    2.47780102996715    9.85244311031724
C         2.83460696955823    2.86223938212367   12.36815150529543
C         5.53275627636892    2.87245743303489   11.96616920506009
C         5.33399432944778    4.77439178294062   10.02164249111726
Mo        4.05135202667817    3.86584367626133   11.19847421783920
N         4.10211248144024    5.48404676525163   12.57570750316571
N         2.48172115267008    5.14555743035479   10.56780318528850
O         1.33306048715780    7.04720967052272   10.89320790182308
O         3.72457799390088    1.66176777257972    9.05538503920464
O         2.16882014440512    2.21971654074328   13.03819353812273
O         6.41037528807596    2.30513279557525   12.43818555015318
O         6.11489774436768    5.23898027492844    9.32923768404392

