86
CSD_code = MODDIV | q = 1 | S = 0 | Stoichiometry = C40H39N2O2P2Ru(1+) | MND = 6
Ru        7.60106742125832    5.06599547881677    4.27241079463879
P         6.79517388941655    5.09627191290887    2.11693489068488
P         5.61117628159513    5.20308409998314    5.46408527381668
O         7.95456814201230    7.08468337737539    4.92719452183726
O         8.53643196717326    5.40634176455515    6.16923841860950
N         9.45932247408849    4.94932389948403    3.60146232748456
N         7.75260551389019    3.09825109880612    4.12218039748170
C         9.02315755904435    2.66235409921015    3.95348139881905
C         5.60284253278286    6.57814413802144    6.66807607792063
C         9.99631794146920    3.71633709144144    3.68268088137107
C         6.86298960752341    7.75372691280223   -0.97328032930997
H         6.70985122049137    7.73261545174805   -2.04164866283605
C         6.95415055436773    6.61654695199234    1.13893897992657
C         7.42083318388925    2.56600914927050    1.05194434473591
H         6.47915551356506    2.22646317783885    1.45921592734812
C         7.77730750576508    3.90892938772542    1.14106681969466
C         4.22758232103534    6.38869453322012    3.32320398425403
H         3.52701968726378    7.22431038412873    3.36381177769619
H         5.24588448163795    6.80091374212643    3.33734552915049
C         4.04252372433557    5.67567609509076    1.98617202415826
H         4.14455727576069    6.41698835507668    1.19038921785815
H         3.03454443171620    5.25814553889533    1.92203787004489
C         5.06201894703053    4.56145057150896    1.75771867627019
H         5.01749113920126    4.22053544263431    0.71895462323152
H         4.85107791583679    3.70731997768512    2.40826836876422
C         5.96207138688543    6.36204952299473    7.99546429855916
H         6.21088846992216    5.36695734608456    8.33552402707710
C         8.32802526322226    0.37392330258361    4.16173154477560
H         8.55251442581174   -0.67985261485414    4.19318771290459
C         7.02172968181665    0.83066622938628    4.29008283272967
H         6.20009090738354    0.14468187607314    4.41516240747245
C         6.78622232537301    2.18919462156417    4.26047996409847
H         5.77928648063503    2.57773543008298    4.35348709978777
C         9.09282406798229    7.59830124167715    6.97593008142849
H        10.04947866532962    7.95752478747802    6.59907930597435
H         9.24937748742259    7.08945030494090    7.92238314946029
H         8.43268162156806    8.45200097687299    7.10668178223555
C        10.23667568306261    5.98201462905792    3.29488283526933
H         9.74791454728823    6.94727171679426    3.22832310756355
C         5.69017195659526    8.70100426245780    8.46386682351195
H         5.72029741171805    9.52406439927205    9.16149127592439
C         5.30533528893705    7.87181213438553    6.24387328971645
H         5.05009478538518    8.05971708188539    5.21203288804422
C         5.25415297388165    3.79497978120552    6.56280229751813
C         3.96565086003807    3.39645861599398    6.90106506855635
H         3.10789183501171    3.91935421153782    6.50668379105331
C         7.36589433167136    8.98006155326385    1.03113738144909
H         7.60325264282274    9.91183070104347    1.52216943483188
C         9.33249544900720    1.30368898876427    3.97643894069159
H        10.35230266905289    0.98072818551316    3.85047436762201
C        11.35810325498145    3.51043864042726    3.46823654462901
H        11.77945006414140    2.52250910142767    3.54918992266127
C         4.02818662927813    5.48284761649870    4.54581889119080
H         3.64497105905205    4.50618092143827    4.23986727409537
H         3.31068897023784    5.92339891219042    5.24278772683487
C         8.99509269268265    4.32516855882838    0.60649647473519
H         9.27217978576645    5.36990399568884    0.66401583046857
C         8.49283421546912    6.64674443032903    5.97552749540547
C         7.25975106037053    7.81581792793668    1.77285815202472
H         7.41001653691951    7.83041636056875    2.84533298620182
C         5.34605225699282    8.92394931130887    7.14005788721038
H         5.11074272810714    9.92258847556299    6.80318994058686
C         5.99915546953722    7.41950935346176    8.88744089452684
H         6.27149442903320    7.24008416229425    9.91668862021926
C         4.86328347285561    1.65245969877654    8.28956228909965
H         4.70818228973264    0.82098439128021    8.95983003604817
C         8.26748473757214    1.66002734469871    0.43819837305782
H         7.98035471800560    0.62151972634396    0.36909197758792
C         6.75708092245003    6.58722768135434   -0.24000829165107
H         6.53124287148405    5.65090294632679   -0.73170254188830
C        11.59342500855365    5.84988661623164    3.06566469853473
H        12.18628575665089    6.71636515278779    2.82208006498959
C        12.16713895732963    4.58859231158116    3.16156222571061
H        13.22423561325402    4.45062702518287    2.99921845830415
C         9.47829100086286    2.08113136226678   -0.08615724107660
H        10.13711562802623    1.37160049934008   -0.56246846845483
C         3.77602346701608    2.32715532914588    7.75991645387752
H         2.77341914390771    2.02353115560827    8.02064276671873
C         7.16622143561632    8.94955692831811   -0.33914145587853
H         7.24808295882810    9.85765299793963   -0.91658908406986
C         6.15025933224805    2.05231866074474    7.96571964723782
H         7.00025378267708    1.53595504138527    8.38635176748756
C         9.83788464528841    3.41692039076788   -0.00626753192007
H        10.77617121254681    3.75128650661435   -0.42288478222294
C         6.34550409957921    3.11697308707098    7.10614694938406
H         7.34946734301013    3.44363545987402    6.86110520641630

