61
CSD_code = MODJAT | q = 1 | S = 0 | Stoichiometry = C29H22N7O2Ru(1+) | MND = 6
C         5.18361965893969   -0.87232697873671    2.71248340400836
H         5.67024669428134   -1.48835559647854    1.96521106354410
C         4.51836522371873   -1.49382480562394    3.74728828989811
H         4.48962353819885   -2.56939535324225    3.80109093093306
C         3.88536828748095   -0.70334319749918    4.70315741830012
H         3.33996253681860   -1.14956318044087    5.51933291199925
C         3.98850899815605    0.66003591720210    4.57922994792778
H         3.53597748446184    1.31625521402693    5.30519800893634
C         4.70596823108781    1.23631071397970    3.51158420037477
C         4.84427216422738    2.66229711381525    3.51522511959488
H         4.28477678508620    3.20650608320894    4.26129876334763
C         5.70903110392189    3.39077955943851    2.76250302210713
C         5.95738519484322    4.85456538495590    2.96470693352578
C         7.34326230548342    3.95935194723844    1.38747857896312
C         3.25761734566481    2.11480849481791    0.76745651775238
H         3.06517264727665    1.27261240604468    1.42051266651938
C         2.27188787559620    3.05280754575977    0.53055186845779
H         1.30981231177979    2.95646885552466    1.00587423001032
C         2.55308657685059    4.12010590141342   -0.31366366409350
H         1.81835265590583    4.88682991070580   -0.49903683414524
C         3.79183523566265    4.16947046357923   -0.92402743131253
H         4.02915290125806    4.97467343059637   -1.59896291325923
C         4.73617632904888    3.17993528924972   -0.65012932815958
C         6.04176349166089    3.08341859050280   -1.30210692795284
C         6.47198789532239    3.93188819155609   -2.32129265376119
H         5.85981663118434    4.76100518744183   -2.63497717761785
C         7.69715851853915    3.71060499658114   -2.91945853749000
H         8.05461742502341    4.36765110455995   -3.69599311719642
C         8.45631320681755    2.62780040744124   -2.49815206553699
H         9.41588888123399    2.41421038223393   -2.93903211461509
C         7.97410727474022    1.83590418277288   -1.47458213011805
H         8.56241898112748    1.00293992886666   -1.11044566699875
C         4.83478977687084   -0.78328084859279   -1.04035694780863
H         3.99208110195142   -0.10356115559491   -0.99970529210781
C         4.80263925137934   -1.89133999398209   -1.86354696559802
H         3.93725988771501   -2.08273294063299   -2.47637014305460
C         5.90007020372012   -2.74440731210418   -1.88617090216699
H         5.91068755670432   -3.61495788381448   -2.52157044246061
C         6.97890180407618   -2.45220719440318   -1.07314468241934
H         7.84423357297844   -3.09385874054197   -1.07234502127552
C         6.94388193163848   -1.31997220925718   -0.26067636324565
C         8.01791253042384   -0.92195452966330    0.64905114132731
C         9.16316159472366   -1.67803282726848    0.89671287439934
H         9.30897131678958   -2.62467176610192    0.40327410403834
C        10.11119322992016   -1.20503396953560    1.78469608980110
H        11.00498988659449   -1.77320520487139    1.98613198821788
C         9.88571369410440    0.01477621045320    2.41074665629523
H        10.59847403906161    0.42133212366916    3.10901304346470
C         8.72543799346963    0.70938042522030    2.12500358507706
H         8.51941569462744    1.66265175747322    2.59359600359962
N         5.27338511643412    0.45504930714461    2.55786793651644
N         6.53881378397673    2.93911314475781    1.79591457589163
N         6.98483610775875    5.11339682090644    2.09600548286675
H         7.44266790406449    6.00377038173582    1.98047691881740
N         4.47453522755679    2.18051892599352    0.22584383774022
N         6.80722496989075    2.05538397538042   -0.87595212160414
N         5.87277804947621   -0.48597647784605   -0.25505274080367
N         7.80797086784279    0.26495959499506    1.26777610246917
O         5.39908602522496    5.62380473002601    3.70060035325334
O         8.22964365310697    3.90177298873232    0.56277945417400
Ru        6.12460883651795    1.18745457623067    0.78767816065063

