49
CSD_code = MODMIC | q = 0 | S = 0 | Stoichiometry = C20H22N2NiO4 | MND = 4
Ni        0.30773008064043    5.40173133258932    0.53372075083872
O         0.98253094112366    4.98404211623473    2.18249070820895
O        -1.12094518883473    6.14341087519442    1.40305361160696
O         6.00599963254709    3.68159538525378    3.92088819027015
O        -6.17235627319260    7.48861884913459   -0.21802086347451
N         1.78456118079885    4.63706781863917   -0.32684822726697
N        -0.40972774026021    5.83982050431483   -1.13956283509741
C         2.18234399176410    4.66031605418020    2.49881496174797
C         2.55542220589492    4.73839785459619    3.86958823640650
H         1.80387079149678    5.08994413593613    4.55877253765765
C         3.80196186055871    4.39595208064502    4.29674920240504
H         4.07967410637780    4.46425302970642    5.33704384016518
C         4.77641396876505    3.95809058689109    3.37926685711823
C         4.44969231825355    3.84515063137031    2.05151550755282
H         5.20384978324291    3.54764357688128    1.34189829136075
C         3.15853890473832    4.17235028476969    1.57852294040505
C         2.81996960025570    4.03268969378693    0.19078375438768
C         1.53032773268482    4.51534126110161   -1.75564786095783
H         1.05990023971804    3.54421913195126   -1.96364519039928
H         2.45799709825522    4.58727484193343   -2.33484180693085
C         0.58292836392156    5.63634226469551   -2.18560149312114
H         1.15910949672552    6.56082057660264   -2.33085196659413
H         0.11127859136403    5.36352448388565   -3.13662021903801
C        -1.51239117295354    6.47966369208499   -1.42256975577118
C        -2.55642760705390    6.64859625638322   -0.45235804941787
C        -3.86940834696318    6.99375555432588   -0.84591972700644
H        -4.09495635756977    7.06856554492739   -1.89677170820233
C        -4.87002004203327    7.17317593379486    0.07550840862874
C        -4.58291049447085    7.02553062603561    1.44622665216030
H        -5.38355882048552    7.18414991689764    2.15179911409803
C        -3.33314064792347    6.67390346146351    1.85620832144983
H        -3.10272754171960    6.54226607639027    2.90169332899258
C        -2.27307864990047    6.45351327274305    0.93317355078760
C         7.02609621933339    3.23784766880379    3.06617666178519
H         7.89554178163540    3.07544383118910    3.70161371845419
H         7.27191308047919    3.98772024499402    2.30572296161225
H         6.76014207597539    2.29577777353547    2.57327334460123
C         3.68692504489836    3.15164615140034   -0.67226417907732
H         3.07552193452368    2.58380486165574   -1.37039610069340
H         4.23881804569839    2.44307253223923   -0.06450166790886
H         4.39615506429287    3.75068205369359   -1.24457634175230
C        -1.70824105709269    7.07263479989834   -2.79466496348160
H        -0.77475098010634    7.49227725043288   -3.16429469517107
H        -2.44126329776549    7.87174795569932   -2.76530446937344
H        -2.04619788769136    6.31109006383728   -3.49877531517625
C        -6.53115760108366    7.65113029309896   -1.56445141080134
H        -7.59209821603038    7.89690215497206   -1.56108920868921
H        -6.37749877825120    6.73019007095576   -2.13823971028715
H        -5.97425743458152    8.46881458825541   -2.03598768701252

