104
CSD_code = MODQEE | q = 1 | S = 0 | Stoichiometry = C55H44AgN2P2(1+) | MND = 4
C        12.23570356262718    7.29187528894582   11.71854161071489
H        12.57341631105240    7.59779278044834   10.73670463280783
Ag       10.81526000973300    4.84015851684170    9.97347635246487
N        11.30154913782199    6.35444186840599   11.74714701422322
N         9.59048719815229    4.22744247355737   11.90855127922575
P         9.66471770649539    4.90714548854173    7.75425164845725
P        13.12871770326669    3.79032367176870    9.92682543037894
C        12.76762495448340    7.87790622357197   12.85591193048391
H        13.52793129096350    8.63691687088953   12.77109378327429
C        12.29265430031908    7.47109293364068   14.09404055062587
H        12.67615204426210    7.90717987431454   15.00350725266047
C        11.31231864967837    6.49845310100508   14.13706187638497
H        10.91416522195349    6.15275976831997   15.07857543020233
C        10.84208631246564    5.94975571977387   12.94185240337082
C         9.84436509686172    4.89759752995201   12.96614937003644
H         9.37535848669483    4.69399825778832   13.93044643254599
C         8.65234007907301    3.21784538171778   11.82145095001990
C         8.84418594957743    2.30472964878570   10.77211667449750
H         9.72342428084084    2.41914601850748   10.13850978599375
C         7.93911930023102    1.29417542412485   10.58236662698913
C         7.93472006208887    0.20390095458830    9.55411639031660
H         8.81077578055651   -0.44189681266694    9.65391343846595
H         7.94020926625300    0.60389339750517    8.53740411770606
C         6.66502623466463   -0.53332021561038    9.86989827490157
C         6.12127834766024   -1.63766624776707    9.24921634170029
H         6.61447085675718   -2.09768209076885    8.40555266252051
C         4.92563297669901   -2.15224574399623    9.73210346697339
H         4.48843602145329   -3.01793189908446    9.25815156009225
C         4.28472201248735   -1.57055910124047   10.81741759644385
H         3.35671317316042   -1.99086304877070   11.17405542982045
C         4.82166449675962   -0.46084844096194   11.44633538796815
H         4.32190536989454   -0.01073712765282   12.29054232095608
C         6.01683747999683    0.05723221399374   10.96835185068644
C         6.80589672513530    1.18756637389577   11.41327576791051
C         6.60123667316375    2.09938149133813   12.44082124771301
H         5.72734854963096    2.03032840381982   13.07009622036865
C         7.52683691674685    3.10313259683096   12.64762880485626
H         7.35723197847271    3.83264947997229   13.42544661792562
C         7.87720668517133    5.22512463307887    7.63164108522298
C         7.29469053894174    5.78812223781137    6.50080510889328
H         7.91042111573724    6.08161369889339    5.66245144196412
C         5.92435583456123    5.97262705766301    6.45658179849550
H         5.47185105558657    6.41174539706356    5.58027167774720
C         5.13259589557778    5.59428068364012    7.52938100707400
H         4.06391058081004    5.73895591619361    7.48699059061219
C         5.71132681490555    5.03506400915357    8.65779977465875
H         5.09640173052665    4.74133028482282    9.49538649418585
C         7.08110334016291    4.85726207176753    8.71289691996621
H         7.54565322314381    4.42931202507977    9.59317520194819
C         9.83222396186948    3.30412271766625    6.90462621641821
C        11.12571010207407    2.85254575807729    6.64312909057979
H        11.97099987737883    3.48068761497660    6.90082013367514
C        11.32680851670270    1.62093626305486    6.05003298486396
H        12.33103933291398    1.28074786869180    5.84554522884471
C        10.23958093121727    0.82339332050220    5.72545849004265
H        10.39548331378118   -0.13917468123255    5.26287132177005
C         8.95386841370334    1.26308886445970    5.99363613461941
H         8.10690505051485    0.64355368990276    5.73720351129883
C         8.74539043127500    2.49834679463665    6.58490731188150
H         7.74026581448583    2.83749231871149    6.79287465578339
C        10.36289297177822    6.08545989637445    6.55544994457426
C        10.62669296513128    7.36641977369950    7.03507256219552
H        10.41103121864666    7.59561798717749    8.07420623374673
C        11.14985651385073    8.33130062318573    6.19600515057012
H        11.34855423832751    9.32484361692501    6.56980183738460
C        11.42222860603931    8.01875988516003    4.87275817653977
H        11.83553991126647    8.76898071364483    4.21583930998411
C        11.16454760527740    6.74514459145015    4.39281992941138
H        11.37436315460335    6.50442479185685    3.36149135724723
C        10.63371988401416    5.77691432106101    5.22744977140779
H        10.43093057967632    4.78581027759611    4.84728651671859
C        14.07091726162225    4.40081866562941    8.49222593180741
C        15.13542422384883    3.71842822870193    7.91480881956306
H        15.46106015611410    2.77359331382888    8.32559988311966
C        15.77066255993219    4.25228576707004    6.80671658357640
H        16.59752257287747    3.72212134784070    6.35868442327146
C        15.34912587994770    5.45780976952677    6.26897811962910
H        15.84630417375812    5.86412485188997    5.40162953192176
C        14.28603461832504    6.14046004386964    6.84000860885273
H        13.94876412979533    7.07609498960400    6.41942595540141
C        13.64957517977429    5.61074709996107    7.94538843297262
H        12.80527524100086    6.12806414362980    8.39619384254142
C        13.55882117503169    2.02233068276521    9.98104837724402
C        12.67917262296393    1.12801628046728    9.37849578921815
H        11.77055979112651    1.50208237988440    8.92219960242685
C        12.96932955875100   -0.22349178495152    9.35627845994575
H        12.28700435704068   -0.91350815146744    8.88246802106843
C        14.13406515054252   -0.68974736101348    9.94442647955413
H        14.36087637965260   -1.74484364472329    9.93095022725320
C        15.00770922167916    0.19689055620793   10.55417182000395
H        15.91403040568350   -0.16803266437391   11.01364147022821
C        14.72605053836796    1.55097874630097   10.57508391643411
H        15.40789277437954    2.24141867389651   11.05229052575482
C        14.06203468518113    4.45470398095657   11.34008854292900
C        15.07359834127687    5.39908434229783   11.21896611102757
H        15.39163404485593    5.73076835503420   10.24038818377135
C        15.67834220284830    5.90845689900122   12.35565033055253
H        16.47076365283601    6.63552367636045   12.25900276232875
C        15.27429478086484    5.48736637865138   13.61103178646649
H        15.75080232875794    5.88603414730972   14.49357753498830
C        14.25880428100660    4.55086203911813   13.73556480046673
H        13.94381565975005    4.22080502960725   14.71441072609662
C        13.65052358851335    4.04119763897922   12.60607704931700
H        12.85333773431479    3.31202953118286   12.69025184727095

