84
CSD_code = MODREE | q = 0 | S = 0 | Stoichiometry = C31H44ClN3NiO3S | MND = 5
Ni        0.24424748027635   -0.76777967737767   12.01543597270555
S        -1.46272222564688   -1.50902174184293    9.57375834624821
Cl        1.70687955928239   -0.76812696892676   13.55106435813321
O        -2.04582020482622   -0.63877047352663    8.59024506043416
O        -1.44618328233817   -0.94924981257317   10.92091219971293
O        -1.87542990773308   -2.88648802139008    9.51980801622074
N         0.93100873457438    0.45988626887265   10.17048642856685
N         0.91173715729087   -2.36339592953233   11.28854574623032
C         0.83048530098433   -2.59134024247967   10.02905818247395
N        -0.35128941398441    0.73118825323396   12.74838438117119
C         0.38751842049088   -1.58838879944810    9.06322313611597
H         0.35947636055934   -1.98847146665239    8.05381790748932
C         0.77884947827368   -0.17047066217024    9.07482991232536
C         0.13784623947159    2.77090016552414    9.96033872806760
C         1.32964622264455   -3.40520889051931   12.16933066887764
C         1.14863881603424    1.84552805587575   10.26609440350226
C         2.69935171923234   -3.64924650733308   12.34017831668548
C         0.36423511235463   -4.16496973308421   12.84594272167326
C         4.72068864532345   -2.19768744790175   12.59468088732153
H         4.16071259245183   -1.57005665296027   13.28274046975198
H         5.44048956347314   -1.58612149317338   12.05463666411513
H         5.26984733864173   -2.94169938493466   13.16515062525835
C         3.75746067138703   -2.85783664904264   11.60638462189412
H         3.27403193602024   -2.06080538507148   11.03354695508923
C         0.89511254832919    0.44387619765194    7.71147268608726
H         1.24292418201273    1.47204686520156    7.77832374875750
H        -0.08702177647344    0.42034174956559    7.23969127316954
H         1.58389748238406   -0.13234896601641    7.09470875110485
C        -0.44416642489596    1.82138398579659   13.09672131568211
C         3.43670098629115    1.24406546979565   11.10794050578646
H         2.91862395195309    0.33096535969862   11.42564032442951
C        -1.11007119231142   -3.88694137253620   12.66157944181277
H        -1.27834730553682   -3.47194977960772   11.66312377235537
C        -1.20999903383850    2.37411228069286    9.40290400790847
H        -1.24060857230891    1.29954034193002    9.22325886174493
C         4.23950792829605    0.93237682057553    9.84111633918858
H         3.59079812898142    0.56057889040366    9.05115730667840
H         4.99318809068242    0.17716951092574   10.05148554412392
H         4.74025969444717    1.82947111107369    9.48055045069071
C         2.37588461616612    2.27247647216849   10.80114128332574
C        -0.54743484784533    3.16753631572789   13.55368078589444
H        -1.59280743419571    3.43487845833208   13.70333587771778
H        -0.10533409997263    3.82383883853116   12.80199857694727
H        -0.00350051383850    3.26988599372319   14.49237022312609
C         2.14547381874637   -5.40089435475523   13.90158960376364
H         2.46361024854649   -6.17563984998849   14.58323265277903
C         0.99537409817297   -3.96095214225074    9.44581324899337
H         1.37936721389203   -4.66960781427707   10.17460487182392
H         1.64378475381029   -3.93699880866732    8.57211947880806
H        -0.00012032137152   -4.28032434889821    9.12928788589876
C         0.79867038217484   -5.15116362461201   13.71946199201339
H         0.07519611916218   -5.73695475940811   14.26258033448365
C        -2.33870442806806    2.67907224807408   10.39237647597872
H        -2.25045759281363    2.04435732241348   11.26999035910367
H        -3.29353591462328    2.46317666148704    9.91966258440800
H        -2.33096918365798    3.72377769049083   10.70004724523553
C         4.36988171005297    1.66096980909496   12.24111336224697
H         4.99310455437217    0.81833765430297   12.52590515748024
H         3.79285415132499    1.95840829108740   13.11236150742458
H         5.02310620572538    2.47829839986852   11.94321808557796
C         0.39086619071390    4.11755532490421   10.19669202108005
H        -0.37441286101098    4.84403278373796    9.96731743823434
C         3.08281162335392   -4.65942246557968   13.21135138837580
H         4.13166994604479   -4.86680344791265   13.35383292895341
C         4.52739068864895   -3.75461423756608   10.63195654210417
H         5.05972515240564   -4.53615583885396   11.16852038325680
H         5.25552205560947   -3.16389594062274   10.08000256325919
H         3.85779475093216   -4.22838415069150    9.91804169171681
C         1.60117065706718    4.54893686179853   10.70352249473262
H         1.77705820717987    5.60278293206346   10.86466264328253
C         2.58865108877924    3.62641486710263   10.99973394779575
H         3.53159364190661    3.97086551627661   11.39163433720584
C        -1.48280977929890    3.08925154433877    8.07434776213345
H        -1.70008732850784    4.14339840693712    8.23363500112536
H        -2.34068513830896    2.63189247891289    7.58841855149957
H        -0.62906358240402    3.01678201297144    7.40449374120775
C        -1.97627463756953   -5.14173445739044   12.77682180034846
H        -1.56777614522273   -5.94861300156093   12.17234462841015
H        -2.97651311811045   -4.91891280385130   12.41395212121938
H        -2.05872366376554   -5.47988900796125   13.80757806052190
C        -1.54640423794483   -2.84141308205049   13.69479189143122
H        -1.37255061498705   -3.20690127762321   14.70576988921673
H        -2.60126848606357   -2.60988021204962   13.57071081048352
H        -0.97393294746592   -1.90792652647092   13.56230672981087

