79
CSD_code = MODSOQ | q = 0 | S = 0 | Stoichiometry = C40H33CuN2P2S | MND = 4
Cu        5.92310494464487   18.52470844177689    4.25949544845293
P         7.37158884446510   17.02442692734943    4.94081819244398
P         6.62584893374911   20.69032469324611    4.12386658946457
S         3.85739724845543   18.96252207737113    5.41477199207438
N         4.46007073894726   18.57212813608161    2.92246453239596
C         8.54314010658888   17.73831107192109    6.12712121997390
C         6.80200194623910   15.50669544228011    5.76315859660211
C         5.51659730541571   15.52764914407323    6.29687665856809
H         4.91550825423251   16.42325135105759    6.19269479471376
C         8.41879431710862   16.40768871643778    3.59140879023698
C         8.18659759478425   20.77967730096043    3.19052641159004
C         5.46331946818179   21.65178854242737    3.11904706075092
C         6.91345013284283   21.76392971941994    5.56111748292913
C         7.58835508743831   14.36422533562397    5.87071517083434
H         8.58241327715007   14.35033722593994    5.44526561094190
C         9.43956985401570   18.70192895720250    5.66532590126842
H         9.50619685183154   18.89963598537485    4.60394168025035
C         5.02477882308914   14.41138785563818    6.94912517314637
H         4.02878866105531   14.42663869030040    7.36608533590321
C        10.23316799464362   19.39607230826955    6.55686553063979
H        10.92536104201133   20.14047261828288    6.19113814370502
C         9.21441022149014   21.68065061142412    3.43768871900645
H         9.09517310031404   22.44468933389827    4.19233857448368
C         8.36315111400263   19.77833533769137    2.23611118130121
H         7.56526775080542   19.06020930037688    2.08155937123937
C        10.13243766065771   19.14446176364121    7.91669647257073
H        10.74913156808574   19.69220720047927    8.61376891919079
C         4.30366778222720   22.10409545897395    3.74836310173350
H         4.19946110769134   21.98548553968108    4.81925464259785
C         7.08676303355763   13.25168659817497    6.52049533910334
H         7.69287164824959   12.36139457770639    6.60685107861189
C         5.80957856287069   13.27499284476690    7.06032039864066
H         5.42503819060394   12.40129594888434    7.56591302308578
C         8.43660352777543   17.49729910969396    7.49343306892685
H         7.72550582727280   16.76808471048637    7.85621304061286
C         7.10600029821903   21.13204131005670    6.78476318950060
H         7.04333372865335   20.05256876371235    6.83480464709871
C         9.54214465443465   19.68889765366963    1.52254813981389
H         9.67306527273174   18.90549740277756    0.79007405918655
C         5.58757236292112   21.76212671038952    1.73786266924795
H         6.47803025763499   21.39570623821696    1.24467239433026
C         9.78603618280136   16.17711499615304    3.68970243615649
H        10.30012035898206   16.35339480521592    4.62433905338294
C         9.23633563090818   18.19576543550867    8.38084957658452
H         9.15398578974284   18.00322429728773    9.44069203001186
C         7.76514166329771   16.18068030667004    2.38267799617051
H         6.69995090100163   16.37332330109093    2.32547881902722
C         6.94356323427543   23.15347403988631    5.48198444809581
H         6.76877883610121   23.64374719004736    4.53330568854628
C         3.47893235467711   18.96419020726201    3.76944662615990
C        10.56160118526749   20.59647612115837    1.76677397672382
H        11.48934676053215   20.52602817388671    1.21844988320024
C         3.42153727129836   22.79199056860277    1.62822365917435
H         2.62277696865979   23.22556604230016    1.04556728627427
C        10.48666620295359   15.72753414649404    2.58439978924787
H        11.54983109525246   15.55070841279219    2.66019609152029
C         7.35334560222941   21.88161410104478    7.92005732022949
H         7.50354730268052   21.38826276095219    8.86897081923878
C         7.18742897531237   23.89696741617967    6.62171190739758
H         7.21166823157908   24.97577756178464    6.56395020959669
C         4.56957807380324   22.33864273775473    1.00005517463947
H         4.66824833944953   22.42345884215821   -0.07267531674329
C        10.39527785817305   21.58666888211324    2.72143444048978
H        11.19428895372121   22.28825519320101    2.91358485764936
C         9.83241867816801   15.50266712055190    1.38414951509536
H        10.38707894381360   15.15422398275562    0.52529456565207
C         3.29175086182948   22.67690886188965    3.00331774822917
H         2.39219406938244   23.01950561671713    3.49283004479583
C         7.39839010729066   23.26348103730890    7.83713249794856
H         7.58813090885382   23.85204081191998    8.72285326453612
C         8.46784780760531   15.72569042795532    1.28378581426182
H         7.95794619008810   15.54936904948239    0.34777102586253
N         2.01353793587610   19.43700945085191    1.95181316240244
C         4.21886482638317   18.63036621729944    1.61420342847603
H         5.02245045971521   18.32028028795202    0.95742250358161
C         3.00670516095777   19.06820641875640    1.13060049236321
H         2.80062614337230   19.13199766713119    0.07262811704062
C         2.23923241871131   19.37685599704761    3.23676533327099
H         1.44017861838432   19.67420455717920    3.90129336655049

