47
CSD_code = MODTOO | q = 0 | S = 0 | Stoichiometry = C18H24O2P2W | MND = 8
W        -0.84092822715405    3.28763358617016    8.08730114135422
P        -0.09100700285914    1.97270790713548    6.16749912206375
P         1.56246112966737    3.17709008296550    8.03556212636101
O        -0.82608469720633    0.58806892524726    9.66493964483299
O        -0.51626705803802    5.80698631972718    6.26435721903651
C        -0.87469418135998    1.61570423998028    9.14176008522032
C        -0.69493902051586    4.92199895074602    6.98155943753688
C         1.73495592807862    2.20410416263782    6.45486451809881
H         2.27990173289191    1.26308027183098    6.56934120705116
H         2.18985393871054    2.80061046820821    5.65880730685588
C        -0.29423481255939    2.47619822229695    4.41402453984032
H        -0.09887943618253    3.54485799527675    4.33460914783207
H        -1.32128538852668    2.28540068598163    4.10467918061480
H         0.39024785034106    1.92288852441721    3.77010231981576
C        -0.23627521698322    0.14747737580126    6.00918600900930
H         0.00770979811276   -0.30707811021859    6.96864880244819
H         0.43395845817578   -0.23030141347378    5.23623712879898
H        -1.26471701827510   -0.10766386693438    5.75515328076645
C         2.65373026018403    4.62399351550038    7.80216839894224
H         2.60969309018017    5.21932500486988    8.71374564192758
H         2.27438347538523    5.22286565459498    6.97525210724710
H         3.67907861094535    4.31018969726641    7.60240247821102
C         2.50180331144255    2.20155554552809    9.26217142506260
H         2.05499021804472    1.21110946858832    9.34195343547350
H         2.40435156328589    2.70612257201782   10.22298853954020
H         3.55221892754225    2.12091111775093    8.98011348465410
C        -2.87946688466294    2.93233301910668    6.93671180189124
H        -3.05886887004981    3.82307779887345    6.33979160262684
H        -3.12673316114026    2.00890586524793    6.41791138553061
C        -3.14211638639340    2.98866607453914    8.31238673953649
H        -3.44709181156801    2.08806609948930    8.84601890005278
C        -2.83832654736157    4.15793369959275    9.02681828903470
H        -3.03969849348474    4.16538092600884   10.09376385329600
H        -3.01000932332407    5.11789923932121    8.54356089816643
C        -0.07322920584307    4.35462187480492    9.75196548202435
C         0.47531830577629    4.97001807619834   10.64413545830921
C         1.05390469912150    5.71432794760470   11.70117299774007
C         0.28299913571863    6.61891172433047   12.43613326902868
H        -0.76274752466122    6.73563336096327   12.19028332088283
C         0.85169521201776    7.35155122229494   13.45840887722637
H         0.24624689157668    8.04925832229241   14.02027640557511
C         2.19433358930849    7.19810536579730   13.76816534476627
H         2.63630538329463    7.77305760937755   14.56907905592401
C         2.96741883720749    6.30391322089026   13.04526000147734
H         4.01523476390670    6.18109269871129   13.28350255836883
C         2.40641119233799    5.56780918156757   12.02037340089376
H         3.01329396492754    4.87109976903704   11.45625262899770

