43
CSD_code = MODVAF | q = 0 | S = 0 | Stoichiometry = C16H18N3O3PRuS | MND = 6
C         6.23387697716257   10.59157454935506   13.02872151285665
C         4.60954808869657   10.11817129804813   10.91184199639578
C         5.99846827647867    8.00511100904954   11.98045785505801
C         3.96421285768466    6.71794633420785   11.73951390099750
C         3.27573710243180    5.53741525657565   11.42295163667128
H         3.82927086897126    4.67398218135433   11.08852887039970
C         1.90628643953326    5.50925142120448   11.54841612808911
H         1.35295301799357    4.61293341514946   11.31319414027426
C         1.24698623961370    6.65673637837514   11.98089492054916
H         0.17483289552811    6.67611789600140   12.08763398095284
C         1.99665958289997    7.77687567173402   12.27100009907353
H         1.51990776671850    8.69069462112470   12.60172199366727
C         2.13933902996993   10.37784709166453   15.03609812795101
H         1.57303095039367   11.22513617760018   15.42317436056635
H         2.79515323595038    9.98697477400235   15.81419927994471
H         1.45407102358049    9.58638020363474   14.73854898670363
C         3.96330140361626   12.38739530155770   14.35744932739039
H         3.20690052540444   13.08079551623865   14.72601555946626
H         4.57803729687762   12.87098640318034   13.59883489533073
H         4.60814055713940   12.07581152034565   15.17995198666161
C         1.94619079412760   11.72937817099482   12.53420012678621
H         1.31133867437079   10.99176558563358   12.04623074723776
H         2.49201502432449   12.27504092673532   11.76501896778271
H         1.32970327437148   12.42042795892567   13.10950138815187
C         6.79885304770073    8.98683590108935   14.86362716646617
C         7.72481473280472    8.45885025519697   15.78269890500969
H         7.38558473640703    7.67055694184897   16.43540347065333
C         9.01150252849572    8.92337161199225   15.80835480916902
H         9.73174682911198    8.50365894740220   16.49376408264109
C         9.39097625741035    9.94872865845383   14.92697761141187
H        10.39988729360905   10.32549328901209   14.91560629781448
C         8.45382423227401   10.45880066925285   14.07609357715603
H         8.65020603827938   11.25697990735025   13.37302472195353
N         3.32239655009596    7.82077600837361   12.16347179275440
N         5.31304201219839    6.81456811614891   11.63744231970720
H         5.85532204861733    6.00770412446944   11.34403406726858
N         7.19228593977846    9.99617142163507   14.04845171779733
O         7.20961558382215    7.96655263523249   11.95428528713583
O         6.58767362325945   11.65879156432888   12.60410959369963
O         4.55176156425863   10.54266093055207    9.84462357786248
P         3.17960347926307   10.90766455464726   13.61532946562293
Ru        4.72123840501671    9.41632708760227   12.61230057130372
S         5.21000319377185    8.40985771272213   14.79240017561713

