69
CSD_code = MODVUY | q = 0 | S = 0 | Stoichiometry = C27H36CuIN3P | MND = 4
C         0.96647311267687   -1.02231598512009    2.80834235374480
C         2.07378930432814   -1.81841024566741    3.12628956443037
C         2.04989046308072   -3.16684954192316    2.80282304486184
H         2.90594075403042   -3.78454128662423    3.03673420734938
C         0.94597388526568   -3.73254154265822    2.18653854639261
H         0.94507036116813   -4.78445794420497    1.94340442548458
C        -0.15251747737571   -2.94648605006658    1.88539345999971
H        -1.01680165442404   -3.38017533740720    1.40439454830342
C        -0.14330656136681   -1.59908897437836    2.19796720539251
H        -1.00157795725819   -0.98707116975136    1.95729126275915
C         3.28641267218074   -1.22151735590045    3.78662208678517
H         4.11568300592606   -1.94697894226277    3.72219145370627
H         3.58863896057773   -0.31804624769289    3.24103620394007
C         2.55394933041731   -1.94918531473270    5.96269365434438
H         1.58495627112651   -2.25743515092869    5.56968556006876
H         2.43224355472733   -1.63432796385990    6.99815995545261
H         3.22915449026586   -2.81693969419328    5.94085085988752
C         4.34251420869593   -0.39415079037188    5.74563759729249
H         4.20236300491391   -0.09942113336541    6.78262787560923
H         4.70642155953302    0.46837520029160    5.18988052728589
H         5.10278387392983   -1.18729261448118    5.70536148684206
C        -0.70824119965251    1.24291604117005    2.98004881022073
C        -1.69855448761962    0.96131356467715    3.92871774788560
C        -2.99436677594694    1.39936939100345    3.69663791763623
H        -3.76521966231404    1.18366372480784    4.42340601606618
C        -3.31377232982011    2.11063035953072    2.55225011156083
H        -4.32746948400377    2.44638078136368    2.39302282778830
C        -2.33231306824528    2.38711283742468    1.61669417840996
H        -2.57365454937981    2.93842743857985    0.72009095841579
C        -1.03607059317355    1.95575584336308    1.83128093374191
H        -0.27030222766768    2.16721509505079    1.09874921842123
C        -1.38347000364606    0.17729878305721    5.17455742717826
H        -2.33315651668486   -0.09399665060779    5.66857595809618
H        -0.87419976062158   -0.75532282062155    4.89562068596945
C        -1.05244692566764    2.21068736849118    6.42150433321082
H        -2.05653596378379    2.15112903339424    6.86394628682318
H        -1.10655269049715    2.80911410788571    5.51284663821282
H        -0.38985125757145    2.70976294334085    7.12498104420530
C        -0.37896501916228    0.11972781574815    7.33550784847390
H        -1.34229994815520   -0.01072844296722    7.85038363120171
H         0.30539826084562    0.63225235821060    8.00863013122060
H         0.02519827274039   -0.86496182066499    7.10399719735903
C         1.94193551196490    1.51735007959097    1.98899759354964
C         2.29506853012555    2.86478646360930    2.13215562308178
C         3.06349956012650    3.47183385571898    1.14878906412370
H         3.32421590996966    4.51145269031778    1.27467367428863
C         3.47876605828251    2.76307852439018    0.03565122397065
H         4.07316793971168    3.24951618136814   -0.72343378492356
C         3.13623730076921    1.42766029212349   -0.10145449374745
H         3.45936493753050    0.86768632779039   -0.96681278848722
C         2.37736481214068    0.80615654209626    0.87283109737592
H         2.11257448572074   -0.23660751228528    0.76162866393263
C         1.88117315911059    3.64395479395423    3.34635899894067
H         1.00639617239533    3.14334918058054    3.81855591320953
H         2.70414572646810    3.60972824174112    4.06841639784340
C         1.52021998602754    5.80974157628072    4.28411311791290
H         0.68330411494207    5.49545555286785    4.92517647818133
H         1.38778867631107    6.85960958303206    4.02743173372950
H         2.44340107874692    5.70029621676926    4.84913904187290
C         0.41452660687155    5.19008865409921    2.25811825339393
H         0.53357626876684    4.64388299586867    1.32330433674023
H         0.27511755223957    6.24531934369131    2.02840827350032
H        -0.49097090771903    4.81905010206420    2.76752429173176
Cu        1.71191886159280    1.04691115451137    5.43381408034818
I         2.71536484672972    2.64019584471289    7.06274647639309
N         3.07287294447343   -0.83649390820395    5.18544647039705
N        -0.51762907568370    0.89298750576531    6.11246880768451
N         1.60650877319247    5.03386535826680    3.06285993503213
P         1.00378093687664    0.72465469233794    3.33971573785740

