76
CSD_code = MODVAE | q = 0 | S = 0 | Stoichiometry = C26H42NO4P2Re | MND = 6
Re       -0.80044179972226    2.47010182208117    5.44120700191668
P         0.72105829049854    2.87360266778360    7.29317041976263
P        -2.06665632134575    1.13925460415510    3.81819941259999
N        -0.98081127741068    0.54849617180962    6.42859201692394
C         1.17213909910148    1.09547649583687    7.33366158568385
H         1.89251133886624    0.80297581337381    8.10034183258263
C         0.01267834169795    0.19514586775581    7.25742582761467
C         0.02500287590948   -1.05784056705355    7.87857323687467
H         0.84216324897469   -1.31889060794838    8.53256676225637
C        -1.00560408483322   -1.93785117875926    7.63347257543712
H        -1.02948790354667   -2.90402350301957    8.11418289805152
C        -1.99643856932734   -1.57794516486065    6.72860060044261
H        -2.79459507307334   -2.26110788898155    6.48275221531057
C        -1.94036530147351   -0.33091967633843    6.12633852555553
C        -2.92884610444133    0.06518053899165    5.07011189279340
H        -3.69827326699631    0.70529868584213    5.51595370689513
H        -3.40560927248086   -0.81394389621188    4.63113291233219
C        -0.00011369943227    3.22424763473521    9.01485763316359
C        -1.10381219039223    2.18809170908115    9.25094129332294
H        -0.69504502091556    1.18874215102607    9.39105750214522
H        -1.80795527108247    2.17502585525860    8.41992268209335
H        -1.65899030576124    2.44692592149980   10.15178478999071
C        -0.65579469246459    4.60742212861458    8.98860399068243
H        -1.37548747097812    4.69059995114859    9.80137615364469
H        -1.18470050736801    4.75311607511553    8.04722912557757
H         0.06819587646592    5.40624633998969    9.10626910350336
C         1.00516457661378    3.11339734764424   10.15875654795938
H         1.75562678161503    3.89792091941626   10.12297692909140
H         1.50436265294162    2.14545157077788   10.15386173495716
H         0.47573179842727    3.20858954550232   11.10674690572357
C         2.37619466492225    3.77276671364463    7.05633978310002
C         3.53285484944937    3.09663858691242    7.79348321329288
H         4.42909812846661    3.70393117081482    7.66896118247463
H         3.74183970004105    2.11525103004561    7.37205987255586
H         3.34586237737256    2.99164292077221    8.85863664356253
C         2.70644598209389    3.80809095652255    5.55954373552077
H         3.53284697110296    4.49743142746931    5.38980582412258
H         1.85000770611110    4.15184428821287    4.97951701621888
H         3.01474498415726    2.83693023083101    5.18449987043897
C         2.20382589997988    5.22465795061109    7.50834093363359
H         2.14387787054214    5.31190116974156    8.58930521588459
H         1.30800839938236    5.65117796898487    7.05823625598787
H         3.06075458239598    5.81158923795094    7.18020203539829
C        -1.10948766107281   -0.06823556541029    2.70930507254588
C        -0.04870338249506    0.76594254725734    1.98711800676103
H         0.56656818044052    1.29160123985036    2.71523029359784
H        -0.49221725363801    1.49818665969119    1.31863254190928
H         0.60028743943543    0.11582580553403    1.40174378770045
C        -0.39371590730227   -1.09438561980582    3.59113516258215
H        -1.09179779196900   -1.75226807600248    4.10707345106677
H         0.24953068150404   -0.60980071106426    4.31828567774091
H         0.24920662310496   -1.71486616631903    2.96719845401231
C        -1.96270931049864   -0.84453026861058    1.70729879753754
H        -1.32290449333252   -1.55861047185173    1.18853419609920
H        -2.40427278070017   -0.19899879873341    0.95436314048795
H        -2.74768457166535   -1.41023924199347    2.20693747781011
C        -3.51080669771743    1.91212942616426    2.85917776164528
C        -2.95907901505521    2.58018750461292    1.59992047005413
H        -2.66589476247590    1.85950300482047    0.84203451836473
H        -2.10082101766215    3.19798903881963    1.86171093365131
H        -3.72004253351199    3.22601878385134    1.16451996492563
C        -4.64334750986070    0.94114465594303    2.52516398080059
H        -5.08282182981156    0.52626780075758    3.42905442999410
H        -4.32940050764549    0.12665566891860    1.88338803271727
H        -5.42586617283244    1.48878598353144    2.00112695538299
C        -4.09222584599580    3.02361120279020    3.73537176324292
H        -4.90974457249549    3.51027657210394    3.20646944775204
H        -3.33160757726599    3.77077638053433    3.95710161437532
H        -4.48697653157061    2.63951982636898    4.67223424792100
O         1.09223809447857    1.36022934461142    4.93948147060001
C         1.79256084066774    0.88663120259301    5.85020349027342
O         2.83212625154128    0.26581022623419    5.78721279955053
C        -0.53399473620777    4.06377685948317    4.38409568548436
O        -0.40096032973901    4.99633019620656    3.71299876459093
C        -2.36009059876323    3.28153573184445    6.21208891469855
O        -3.28291358395531    3.72755827046940    6.75828929705557

