63
CSD_code = MODXEL | q = 0 | S = 0 | Stoichiometry = C31H23FeN3O2S3 | MND = 6
Fe        7.00490120373551   15.80503588855295    3.82265926566453
S         5.12783203626404   13.96403503097505    5.36267498860343
S         4.06438731265971   16.61818389669144    4.58404644977073
S         6.13909057585612   16.38736111380232    6.68861694287841
O         8.55030348758808   15.82526408515679    2.58168872130919
O         7.98065233915445   14.72058921399117    5.06509181971790
N         6.34785466928673   14.21720847370691    3.03799613278749
N         5.91540015431891   16.87014182001167    2.70762528403416
N         7.65025769323385   17.32280400438925    4.74092647888635
C         5.57405118556319   15.70780903023243    5.09749585549489
C         6.66663768400940   13.80719793334275    1.81085678774034
H         7.23480092291037   14.51589278708248    1.22925934061350
C         6.32361559454624   12.57115643110020    1.30720208415201
H         6.61745029260626   12.29432928910069    0.30782616384151
C         5.60169056013664   11.69659676031394    2.11525541642366
H         5.32505228091619   10.71568571529960    1.76067941406976
C         5.23575078191176   12.11805536276057    3.37536150779397
H         4.66062603540558   11.49630433916976    4.04212111234889
C         5.61882518991527   13.38984884334939    3.80180263732239
C         4.66525785550049   17.20212631097385    3.06716874474719
C         3.83617746013290   17.99184512060387    2.26954913730377
H         2.84303536894760   18.22064599982507    2.62069730894611
C         4.30774562100696   18.45467629805313    1.06102701459022
H         3.68796894834597   19.06767682826483    0.42526523783941
C         5.60289831987911   18.10821668851639    0.68312066830269
H         6.01792208748948   18.44189707046504   -0.25407922955412
C         6.35198511269010   17.32464014366874    1.53163494989868
H         7.35695527515298   17.02430365553773    1.28469002202945
C         7.32795750685630   17.46453485302588    6.03505153429851
C         7.89549203890791   18.44997847123910    6.84380824098304
H         7.60421301070022   18.50422878559594    7.88017224084633
C         8.80876140283869   19.32322173099092    6.29416356503529
H         9.26817564941043   20.09128619728389    6.89707637268628
C         9.11473032756592   19.19934064960670    4.94111905744683
H         9.81057774732676   19.86926098167727    4.46271882095672
C         8.51320776559302   18.19243583442239    4.21817260581590
H         8.72215782218924   18.04363368861215    3.17097687218518
C         9.63988374626890   15.19209873541670    2.73583461830584
C        10.62230279105613   15.29658794371065    1.62223156985634
C        11.44550928268958   14.23410493509444    1.25902333046669
H        11.37508502973915   13.29495229777514    1.78686960674614
C        12.33296178895319   14.36610200247907    0.20685745213733
H        12.96423285177972   13.53391815591386   -0.06942533629503
C        12.41352777396286   15.55726020075711   -0.49591637644468
H        13.11144241994548   15.65760840086738   -1.31409157535569
C        11.59041529927558   16.61594970000762   -0.14962649022660
H        11.64494217090959   17.54566866044586   -0.69746928769936
C        10.69720950121024   16.48285065772473    0.89611944387901
H        10.05095408082286   17.30427337120993    1.17012114549926
C         9.99261831557341   14.43939710525034    3.85624349903328
H        10.96240184153770   13.97246460009122    3.86863058473488
C         9.15408628476192   14.26060208912004    4.96216983864977
C         9.62682997569528   13.44160018711725    6.10741889179398
C        10.96992769275071   13.33668566731984    6.45891348825893
H        11.72072137180626   13.87621148992640    5.90127120467881
C        11.34737225650722   12.56629279801698    7.54347047541233
H        12.39175837684175   12.49425446809578    7.81164286582620
C        10.39431513980162   11.89238627781894    8.28964594655589
H        10.69564437045249   11.28941262324695    9.13385354962720
C         9.05454536700936   12.00279808916456    7.95522152317473
H         8.30586205176360   11.48759589986203    8.53898851650681
C         8.67330610452131   12.77604374803943    6.87623828455849
H         7.63134479381767   12.87623056813125    6.61144366250197

