128
CSD_code = MOFCOZ | q = 0 | S = 0 | Stoichiometry = C48H70O6P2SiW | MND = 6
W         6.39262802327000    5.47453789330312   23.20453021874475
C         7.02321600223269    3.72189224618256   22.52179220489248
O         7.38829012105023    2.71537920139880   22.10659650509037
C         8.23074896598319    5.85382971006235   23.88045714763076
O         9.32364102532951    6.02060897875388   24.17724538084149
C         4.60152186763492    5.04990961252069   22.45254004245049
O         3.61153847904380    4.71210991088361   21.97472595480934
C         5.92103182714231    4.65015524078725   24.96211801232035
O         5.72651727620880    4.14140020445941   25.96785375078029
C         7.04394924337272    6.20194580051839   21.46850505919573
O         7.54741877286562    6.47388600323316   20.47234100555047
P         5.39856961842941    9.40958259531952   25.88833086120209
P         4.37555086175740    8.44303564379827   23.56291592028428
Si        3.17420830766949   11.34009439415963   24.38087803891180
O         7.20011260507642    7.31403745121692   25.84723730777536
C         6.28640132538425    8.02414257729172   25.13265265459208
C         5.69516164851579    7.41076704312119   24.05055008933626
C         4.33787179489081    9.85578466454151   24.52941786171774
C         8.25811416369662    8.00617460805013   26.47710482220231
H         8.53470441114374    7.42645112349700   27.35799301183876
H         7.96321491623331    9.01592069261271   26.77674146351644
H         9.12346289524444    8.06179297296803   25.80697401422375
C         3.77085084496444   12.78742861012627   25.46437402926328
H         3.83211897010698   12.50580480275631   26.50993996712305
H         3.07266987207912   13.61513998751865   25.38629524219608
H         4.74909663624549   13.15230108291503   25.17334794616492
C         3.13840561663557   11.84881500433459   22.54379105745243
H         2.54389345377859   12.74731565091865   22.41166911921944
H         2.68389025400007   11.06247078657381   21.94863758564709
H         4.12474007787677   12.04932343665252   22.13695767238752
C         1.36809241757720   10.96573933188281   24.86351067771357
H         1.26474933371503   10.71321442983977   25.91427558887246
H         0.96009400017956   10.15168533014071   24.27317942911288
H         0.75411924387999   11.84271178198121   24.68094960794832
C         6.29430173732299   10.87678131772973   26.54750763095981
C         5.95122227290957   11.18302577996405   27.89449122707801
C         6.30377626408457   12.42211907722141   28.39898232502950
H         6.01816737966520   12.68728175972769   29.39909493908349
C         6.99876882750907   13.36802051596185   27.65958585074742
C         7.41229070006407   12.99555260803014   26.39951067688439
H         7.99664330292524   13.69381309443496   25.82929742000821
C         7.09722576415531   11.76951575861965   25.81087558682890
C         5.20610574118649   10.23091964182204   28.84774737301400
C         5.86450124714768    8.84363622781184   28.88369621587976
H         6.90379382682977    8.93814171059944   29.19289900661349
H         5.83072359209656    8.32797604481418   27.92701798529716
H         5.34926765808187    8.21294926511692   29.60513381845649
C         3.71971194938066   10.14067464360462   28.46952838738511
H         3.25845159563896   11.12419189979686   28.54110494522544
H         3.20619502871553    9.46867958686034   29.15377698425225
H         3.57618023334230    9.77214872120735   27.45617509703198
C         5.24011713406533   10.71727771840853   30.30919515758130
H         6.25919186530812   10.88440563598467   30.65049072932269
H         4.80107513983424    9.94758991838675   30.94068306594584
H         4.65353007278707   11.62124872937366   30.45545268708007
C         7.28194600898566   14.73299368744288   28.26358523893667
C         5.94463628145714   15.40311027771357   28.60988445596209
H         6.11821802134798   16.39597361309319   29.01887912980438
H         5.38921248148481   14.82653655178003   29.34434082469673
H         5.33038117708416   15.49877919023450   27.71682578991143
C         8.12394419276800   14.55704016799847   29.53493553183348
H         8.35496136393992   15.52805754671019   29.96733390578735
H         9.05902723041726   14.05262805308360   29.30002946777634
H         7.59854850729644   13.96974393197196   30.28287132268584
C         8.04451943915580   15.65667247270599   27.30988301087406
H         8.20027063292582   16.62119096708226   27.78859214469578
H         7.48219466464080   15.82519299863222   26.39408835721507
H         9.02113872762661   15.24665765684746   27.06238968010558
C         7.74218519709176   11.61029709389349   24.42610941680069
C         9.26358463087419   11.81189835527491   24.57997556922665
H         9.53216210950898   12.83031600278345   24.84270296330575
H         9.75875658789177   11.57373422221255   23.64129779934930
H         9.65427574452870   11.14796502738319   25.34889868431628
C         7.16414590776812   12.67195239228602   23.47618197226551
H         6.10626861556863   12.48025632083478   23.31030936031793
H         7.67765998750043   12.62531419468025   22.51806290779428
H         7.26979485197632   13.68091571385468   23.86457432598451
C         7.57126806940003   10.26566141840024   23.73005301939184
H         6.52304544031947   10.03876492768890   23.56095322918319
H         8.04188441442165    9.46426039801739   24.28851608763186
H         8.05526819141546   10.30605910566229   22.75521468053127
C         2.91318840853055    8.05135115461125   22.57430141238377
C         2.84831005373477    8.42718557001592   21.21746202449945
C         1.60002462629036    8.46039096584521   20.60469232294455
H         1.54748336159784    8.72689892524542   19.56601447383013
C         0.42616439010807    8.18289234170980   21.28036765626472
C         0.54420030142489    7.70710713523392   22.57595374197703
H        -0.35361782411150    7.40347437194830   23.08782613490536
C         1.75644698342783    7.58429023338170   23.24190394980850
C         4.03462953463450    8.67006449626787   20.28260242299496
C         5.34744267808824    9.01915520653470   20.97386218728045
H         5.25161259364795    9.93796797298188   21.55258543198627
H         6.11774372483831    9.17575392219396   20.21869714373183
H         5.69490837849460    8.19754558644268   21.60549978359304
C         4.23733567874017    7.35565289397743   19.51040100662980
H         4.49658931980124    6.55189870271982   20.19603093364018
H         5.04598944970010    7.46620813463354   18.79161057009773
H         3.33384784307487    7.07096955341603   18.97635489127627
C         3.74660612716797    9.80249131077302   19.27800935799993
H         3.35203747754731   10.68134860170088   19.78190566863230
H         3.04830495123274    9.50127869368009   18.50264305649105
H         4.67068616138296   10.08461586299716   18.77882785245454
C        -0.95023322782909    8.33597713472440   20.65606315954437
C        -0.89238258643320    8.88489293369349   19.22799228090374
H        -1.90400374548979    9.01062134220738   18.84792206437221
H        -0.37115298789164    8.19849424382891   18.56479813508413
H        -0.40052835244713    9.85466276294965   19.20038239108378
C        -1.76791645739639    9.31427032939975   21.51190967663761
H        -2.75604885980293    9.45355205234460   21.07925941992131
H        -1.27058034517156   10.28117218096353   21.55657319606734
H        -1.89147171188750    8.94822888975170   22.52743062529306
C        -1.64380480896848    6.96724026821741   20.61714832005723
H        -2.61181404212816    7.05319195700342   20.12852615010637
H        -1.80349749786403    6.57217491406315   21.61644094677586
H        -1.03810282468296    6.25426233442026   20.06214125636689
C         1.66407124086963    6.82179386571362   24.56920940335293
C         1.09488730392095    5.42961264352436   24.22613153541936
H         1.70928816979828    4.94916161294255   23.46943219510288
H         0.07643074527615    5.48095074643096   23.85316708094529
H         1.09444070206221    4.80209551486098   25.11454668926410
C         2.97798675965024    6.57431632917770   25.30168669747200
H         3.70125274789672    6.07126566754432   24.65946597413998
H         2.78796661343625    5.92080992150645   26.15283316064144
H         3.40614664662815    7.49526113414626   25.70196288969213
C         0.72897044689960    7.52617697877425   25.56331015341195
H        -0.22927182598244    7.79048416876781   25.12600681769459
H         1.19703391357403    8.43193459923177   25.93785060194312
H         0.54096508116588    6.86714309030152   26.40829191847109

