75
CSD_code = MOFGEV | q = 0 | S = 0 | Stoichiometry = C34H30N8NiO2 | MND = 4
Ni        5.72538754092524   10.49759757110544   13.07711257128925
N         4.24745218428014   10.52708396526348   15.17243725371469
N         5.27530417678055   12.14705251378855   14.02222864364684
N         7.90733768740463   12.23163326740233   13.45437413899120
N         8.51443113809275   10.30643211860318   14.18724843161803
N         4.54689071454045   11.98494698912450   11.36204305885922
N         3.90706484361834   10.14455723585229   12.46002844331064
N         5.22815719945769    7.79816007087672   12.46671715773275
N         6.99261812037456    8.36283608871496   11.38026990161249
O         5.40314326518487   14.43574740674586   14.27283801433696
O         1.97218263913121    8.89044104127142   12.47326724398414
C         3.33254452720190   10.07362300100553   16.01404066006802
H         3.34472522241828    9.00661507806980   16.20879221573512
C         2.40234452483249   10.88565168536691   16.63457957588366
H         1.67115547932790   10.46733981494073   17.30843455232058
C         2.43354296887069   12.24861284027448   16.35990900502659
H         1.71730944018853   12.91422549731429   16.82069122119253
C         3.38128257331811   12.74500189103086   15.49247978217098
H         3.44638628928859   13.79235186403722   15.25050876413274
C         4.27796542949385   11.84359407227580   14.90610118663404
C         5.78025727580095   13.36169328524622   13.83334364283360
C         7.07002521648897   13.28832738080669   12.96110896071600
H         6.76648571596162   13.07113671232400   11.93408481018095
H         7.59735753974581   14.24132769533371   13.00994240826858
C         9.15338186586526   12.38843101415712   13.98485406995703
H         9.66218236753918   13.33033365949461   13.99044666163467
C         9.53835885650242   11.17531624958475   14.44877441431385
H        10.43878068816244   10.86713276280398   14.93847981512726
C         7.49071547315418   10.95466176335994   13.58329254798129
C         8.52676163402563    8.92534909872149   14.61162797923685
H         9.51964430700657    8.50632026640179   14.42371458125879
H         7.78220598529130    8.38789755587251   14.01708995265497
C         8.16955587491792    8.82022252482050   16.07438974327633
C         9.07786542045839    8.36296460135819   17.01664778585187
H        10.06618718028126    8.04899913384994   16.70977026607702
C         8.71734094945548    8.30109540890731   18.35254354003780
H         9.42636121788036    7.94065982291163   19.08324992671390
C         7.45472297947295    8.70511884836599   18.75074267725332
H         7.17884114813429    8.66022608154540   19.79384174737254
C         6.54772887999713    9.16771539309230   17.81050277598768
H         5.56254936993712    9.48835866661890   18.11490372624256
C         6.90269412069165    9.22188626434843   16.47586187239920
H         6.20145561783011    9.58696297876323   15.73187565154031
C         4.31437531878780   13.09354770367480   10.67788104511717
H         5.18654709642885   13.65391373524900   10.35870639093097
C         3.04485178325048   13.53912949258314   10.36240146658345
H         2.90628279996865   14.45382850145136    9.80758638999612
C         1.95864438722416   12.78040866016730   10.78506519290964
H         0.95044977773766   13.10054437582914   10.56282542670800
C         2.17585431764074   11.61897029861127   11.49284760487677
H         1.36765600855098   10.99714525636947   11.83910430729736
C         3.49788176673858   11.25170176257810   11.77150093360730
C         3.16001565755603    9.06926542645337   12.68748935781215
C         4.03217516501129    7.90769748801568   13.25334602539781
H         4.28946086801879    8.15545498172897   14.28601518916962
H         3.46790711151701    6.97566967947079   13.21347829316476
C         5.58425297861092    6.72205629288349   11.70909752817535
H         5.03262225914937    5.80460147287128   11.71717068857907
C         6.69669640817615    7.07600517556292   11.02189076853697
H         7.28737616080502    6.52865930593110   10.31688593840385
C         6.07951704130116    8.82569300082445   12.26605688180917
C         8.06929377219449    9.11888766243831   10.78281176480191
H         8.95399447054912    8.47958222360329   10.70959177551214
H         8.28182421841418    9.96870138126477   11.43823418710495
C         7.65906141587169    9.62510984061976    9.42131161557934
C         8.27285341914474    9.18029350605594    8.26058144315983
H         9.08667011413925    8.47017119777121    8.31500820987419
C         7.84807269242793    9.65093840394370    7.02910410483388
H         8.33086584571050    9.30481929077065    6.12706825608308
C         6.80440094448421   10.55711485612214    6.95389509493324
H         6.47246184815345   10.91768588787517    5.99161520113600
C         6.18648870166541   10.99854431788740    8.11319874804284
H         5.36919030824067   11.70244366340677    8.06160279130724
C         6.61453780124778   10.53636995760477    9.34335502097636
H         6.13463189194819   10.87130401863838   10.25728097839832

