63
CSD_code = MOFKOK | q = 0 | S = 0 | Stoichiometry = C26H26N4NiO6 | MND = 6
Ni        1.93862183977032    8.30995348569146    7.78211114766378
O         3.01601898450769    7.31318601739853    8.98475312138696
O         2.56586718256786    7.27871155632620    6.31215085245189
O         6.87489337271841    8.12984626157801    5.12980140919311
N         3.79317248676436    9.82641219199699    7.16245207687692
N         4.91586399132512    9.25818320979521    5.19106956382953
C         4.89437727330790    9.39962227449108    7.87923815719910
C         3.83666221211163    6.39851285424007    8.71671673352191
C         3.46653183695984    6.39882883069760    6.31197809490530
C         3.86203817012422    9.76583713397340    5.88212743045806
H         3.02693451530502   10.12968581134368    5.29848427670416
C         6.01682973061750    8.82899033439797    7.25052177981378
C         6.02510707981578    8.67967776589842    5.80000170920659
C         4.88285109246603    9.53175562267593    9.27220287193648
H         4.00284868896857    9.95373794667079    9.73163384739117
C         4.12760354359856    5.91486238388959    7.44121357314827
H         4.87564876541846    5.14867517370037    7.32448738443214
C         5.96045250357126    9.10167811847318   10.01153783506573
H         5.94958319159827    9.20182430052423   11.08704155078384
C         4.57206721091723    5.77487187328445    9.88511701467046
H         4.31977896791004    6.30267126493611   10.80045280078461
H         5.64469438970816    5.82896074820147    9.71800578833083
H         4.29035218725741    4.72828643134695    9.97975141717803
C         7.06982227194967    8.53030118340989    9.38781054302184
H         7.90658108874271    8.19528400403355    9.98288880430980
C         7.09726759863292    8.39028557398308    8.01923842861332
H         7.94050491764866    7.94817118097192    7.51019883634105
C         3.87096267278717    5.83029113517956    4.96753628837513
H         3.23060454513256    6.23478889514924    4.18797646665102
H         3.78838335898322    4.74651064489217    4.98036714058023
H         4.90770392105558    6.08903360245265    4.75855874038146
H         4.87688178805271    9.19073139258394    4.18131158673517
O         0.86104437897375    9.30652366702691    6.57942033202915
O         1.31110607319570    9.34117768889873    9.25199868603088
O        -2.99891076188205    8.48800260974301   10.43253872724123
N         0.08493508222928    6.79261508854036    8.40212932900410
N        -1.03926626836040    7.36068459265749   10.37269753906734
C        -1.01603577736002    7.21870075810322    7.68456658116619
C         0.03993844604529   10.22080773000615    6.84739534037273
C         0.40991947921762   10.22052059937176    9.25214663448398
C         0.01525524925181    6.85343325126204    9.68239520615305
H         0.85017613280462    6.49011350781427   10.26662067372885
C        -2.13910807270705    7.78901421992273    8.31245884954025
C        -2.14838714868507    7.93856675905543    9.76296154110561
C        -1.00358912783395    7.08619118211584    6.29164188226270
H        -0.12316660055790    6.66435196955951    5.83286474688137
C        -0.25143693220071   10.70413099818061    8.12291654971900
H        -0.99991685504311   11.46989193727313    8.23966313881742
C        -2.08086381931238    7.51572650090969    5.55152719410891
H        -2.06928247188572    7.41528304604714    4.47605861576258
C        -0.69537807787788   10.84440751256831    5.67891644666931
H        -0.44360367429624   10.31610933390940    4.76372478195787
H        -1.76800155901788   10.79114604786168    5.84625097444551
H        -0.41294236455853   11.89076581466039    5.58381028818150
C        -3.19081649546167    8.08686796350461    6.17441684492078
H        -4.02727978181424    8.42152789126836    5.57872331675166
C        -3.21920520331526    8.22714226123554    7.54294719963918
H        -4.06290435053712    8.66912350400704    8.05134739440039
C         0.00526885184711   10.78904662551071   10.59653197146521
H         0.64538300172747   10.38443300927659   11.37622214247463
H         0.08806760677271   11.87281098488668   10.58375995906580
H        -1.03156996105451   10.53050147122824   10.80522797733413
H        -1.00104037859627    7.42821226941407   11.38248186326962

