84
CSD_code = MOFKEX | q = 0 | S = 0 | Stoichiometry = C36H42ClO2P2Rh | MND = 6
Rh        1.17273364859298   15.16072530043563   14.82203433287604
P         1.39592111344203   15.76173671365445   12.63775108488039
P         3.36665163479931   14.90489997452326   15.40781992689589
O        -0.93639629961241   15.19538511816385   15.06510864630131
O         0.37851059237495   14.67851363720166   16.71095346030075
Cl        0.83206332704252   12.83328488950859   14.27132551132179
C         1.24349963568348   17.16474356843164   15.33185944238128
C         0.49062192159304   17.59170067357179   16.27836941951850
C        -0.32620309324972   17.92355174690115   17.24623389951081
C        -1.74896281253242   18.34147916949000   17.02862253584204
H        -2.02573439347837   18.22498440365882   15.98360310962437
H        -1.88887575605699   19.38480932233626   17.31680818548537
H        -2.41637177811773   17.73458099219816   17.64157839849693
C        -0.78368003102027   14.77059346154776   16.23958913491193
C        -1.97568131450489   14.36106116726473   17.06164645776286
H        -2.86169461228691   14.88356873917063   16.71239007662879
H        -1.78688769821680   14.56939506429033   18.11107163592868
H        -2.12588551665071   13.28934269618942   16.93921906996293
C         0.76345792985758   14.49466237834778   11.42252394228461
H         1.26677635842129   13.55906067236185   11.69352741815861
C        -0.73481347740438   14.32108895415630   11.66392287400498
H        -1.28542658332133   15.20132168514963   11.33381792281457
H        -0.93860344266807   14.16330758627133   12.72175357791049
H        -1.10148709467097   13.45543690402375   11.11568445633040
C         1.03257294777493   14.83337047535091    9.96081457744547
H         0.72276433519128   13.99415243147743    9.33994072239925
H         2.08610364010936   15.02706605905021    9.77060268072822
H         0.45658404085299   15.70545635798456    9.65697124280974
C         0.41369233359625   17.21469932630784   12.12076406567768
C         0.73132260615846   17.94645295803452   10.97860360242106
H         1.62081530659109   17.71322119699855   10.41145045674502
C        -0.08435497559039   18.98549826419989   10.56784886021841
H         0.17284147822290   19.54830049535301    9.68194193417056
C        -1.22688680993356   19.30259856212578   11.28386260933266
H        -1.85954249763333   20.11592348638023   10.95988978174691
C        -1.55523875876758   18.57025295845489   12.41208003440707
H        -2.44979980524669   18.80886437031814   12.96861925275289
C        -0.74307679369183   17.52968309343013   12.82720955425813
H        -1.00525354582663   16.95269694845385   13.70121246256119
C         3.06468941451329   16.18676741187662   12.04323705635987
C         3.91302901277707   15.19555676963450   11.55775797678340
H         3.57200614725857   14.17230082116962   11.51860383965314
C         5.18816727456019   15.51372879603052   11.12663817273656
H         5.83805947242029   14.73447210188937   10.75633742098157
C         5.62743848688391   16.82733564587761   11.16349137776622
H         6.61728768857165   17.07751571377554   10.81134459942658
C         4.79544103607655   17.81742746076858   11.66091173836775
H         5.13580044034672   18.84175227244244   11.70101235157547
C         3.52951918944065   17.49746732095389   12.11744577269494
H         2.89287812997305   18.27177385529688   12.52161100729198
C         3.43706820602084   14.06275899062657   17.07693606827959
H         2.68588854981978   14.58280520783133   17.68431438285818
C         4.80631681329986   14.15841833866707   17.74285754107636
H         4.74360778863972   13.74426342112070   18.74815732823159
H         5.15375178522231   15.18690992661436   17.81971305607679
H         5.54215330861736   13.57963825541834   17.18761127908261
C         3.01604895227743   12.60342113342585   16.93958180590028
H         3.74691518062275   12.04156105520452   16.35929877045218
H         2.05146091254092   12.52490654374596   16.44406071444351
H         2.93230792133172   12.14780268480006   17.92479695163333
C         4.19822267796564   16.49387125688226   15.72971328442717
C         3.84023540583334   17.22162814000013   16.86363615486615
H         3.11725345076339   16.81270334280842   17.55415716156007
C         4.39171421668759   18.46632094581676   17.09956650504224
H         4.11118839413739   19.01961468109774   17.98370235918897
C         5.29684155795277   19.00837183058380   16.20049268846817
H         5.72727552653107   19.98152893740234   16.38534183379377
C         5.63933383614606   18.30145930420593   15.06107880961032
H         6.33740059489669   18.72089591821246   14.35126208332672
C         5.08845204661438   17.05430016682435   14.82166052386199
H         5.35513194496766   16.51160925152416   13.92793754712510
C         4.59824968239757   13.92402220482481   14.48425030880617
C         5.96859581484694   14.11454168344684   14.64600555522640
H         6.34061949573786   14.89907445592449   15.28808445927491
C         6.86615192562441   13.29615318034278   13.98412919703131
H         7.92739251525214   13.45571188512318   14.11158212112069
C         6.41172474814022   12.27145232363037   13.17023255416052
H         7.11845225855859   11.63547913284540   12.65709677148359
C         5.05100602666300   12.05859869896767   13.02997747809935
H         4.69005257684817   11.24857646226047   12.41312543323506
C         4.14787190914217   12.87908752556336   13.68309946146467
H         3.08410060447115   12.70342580018761   13.59443791642763
H         1.89151417805374   17.82190985324194   14.76227784292534
H         0.02410714067866   17.93910748836740   18.27180638005604

