85
CSD_code = MOFLUP | q = 0 | S = 0 | Stoichiometry = C36H42Cl2F2N2Zr | MND = 6
Zr       10.08239854159117    4.14910338013448    3.58878738549795
Cl        8.11876290027347    4.53235201808254    2.37620968291288
Cl       10.18028238264669    2.99156036148009    5.61946197463129
F        12.32926199542521    4.50775604622875    3.97461580222862
F        11.09851691479750    5.14555787856992    1.77208799269614
N        10.21198746097364    6.06556320207639    4.33110857755503
N        10.83338915734968    2.59782141996630    2.46165565130292
C         9.09240929754797    6.93570721354326    4.30021082484777
C         8.07382170494122    6.78072174818303    5.25333770424527
C         8.19102078123542    5.71129855063967    6.31539121860135
H         9.22201990321443    5.32763278360487    6.31587982772685
C         7.90225338370340    6.24879613195034    7.71783952592955
H         8.09722939297054    5.47235790791878    8.45385055187763
H         6.86558369509101    6.55991086206958    7.81889225260907
H         8.54208025282427    7.10083185828405    7.93731143194897
C         7.24670901575742    4.55554121358074    5.96369521347931
H         7.43011463441796    3.70388632835107    6.61641082009192
H         7.40368811480928    4.25005400844501    4.92385785709385
H         6.20935276686672    4.86621830114669    6.07527934597919
C         6.95158123507122    7.59214815451297    5.17978335594503
H         6.15390897254938    7.46817621505860    5.89593614263161
C         6.84204393850224    8.56012506280762    4.19952048491603
H         5.96229643234190    9.18447929258154    4.15149972007898
C         7.85946354220343    8.72651180422290    3.27987853317449
H         7.76431771697310    9.48486512956052    2.51770852117839
C         8.99574142956072    7.93068141289946    3.31484382420274
C        10.08024724559260    8.11423884568552    2.27771983233264
H        10.91688181148135    7.44886782730057    2.51885496800909
C        10.62069867903249    9.54568580656305    2.27836911818245
H        11.43245452572686    9.63685445399374    1.55970160494420
H        11.00330500426200    9.80554515416407    3.26312773935456
H         9.84611835449823   10.25891828742008    2.00902869651942
C         9.54074473247468    7.72839177221681    0.89704754782787
H        10.33657523857764    7.76501557278134    0.15575439633174
H         8.75271862684305    8.41086339026157    0.58824722297240
H         9.12727775386463    6.72105819319794    0.92259975947439
C        11.37954676099314    6.51231855047400    4.84294326154147
C        11.57756144891732    7.72851981498587    5.53376579872110
H        10.73025078627534    8.38439166832882    5.66844606483006
C        12.81716072578774    8.06274018038344    6.03206262387249
H        12.93504116361454    8.99808379642748    6.55888578845886
C        13.91663930730856    7.22723951826127    5.87634617917441
H        14.87768536699133    7.50539525058417    6.27571315882506
C        13.76854265561134    6.02602731235106    5.19745499822583
H        14.59597560701121    5.35122246556127    5.04830918675682
C        12.52706344801745    5.71254233855239    4.70836392898576
C        10.86139924142398    1.27465936882122    2.97150344360102
C         9.68024526447371    0.51651433892477    2.98238663751356
C         8.40198379050658    1.10375252028277    2.42867685274143
H         8.64869767734364    2.01758836569340    1.86809503972311
C         7.48430569940753    1.48707230490291    3.59577126173721
H         6.63189319140353    2.06031298174323    3.23551574971780
H         8.03905241150315    2.08917687224857    4.32309030424040
H         7.11889858243578    0.59404121722248    4.09981004907660
C         7.69392045317560    0.15200345958019    1.46328731296627
H         6.83974224805555    0.65460422231901    1.01567573934477
H         7.33502150979369   -0.73803124724355    1.97388814946914
H         8.36982064526397   -0.15440894247881    0.66781326571089
C         9.69829212218742   -0.75308407611446    3.54007781178766
H         8.79116873991502   -1.33677384936452    3.57100695728621
C        10.86593085091935   -1.28170162854607    4.05687630216421
H        10.86679076447462   -2.27078097229485    4.49023449318099
C        12.03195219344978   -0.54171992843957    4.01968207139268
H        12.93862017851725   -0.96310068912222    4.42643635560797
C        12.05473414015858    0.73508957524234    3.47659039718389
C        13.33797417303770    1.53434320651404    3.47643122348263
H        13.16836710103295    2.47621088405290    2.94266364640116
C        13.73795491540810    1.86323307757820    4.91797504137171
H        14.60779495068487    2.51702726421709    4.92981253058002
H        13.98323818553471    0.95612031264674    5.46486472013594
H        12.91598976520368    2.35876325576604    5.43290090083014
C        14.46084989585885    0.79285228915012    2.74809389692993
H        15.35633152143314    1.41013077176614    2.71936452640460
H        14.16547199490660    0.56881120458623    1.72524781555195
H        14.70641313144876   -0.13972626653623    3.24930036494281
C        11.32238851756013    2.83788514166704    1.22553250784620
C        11.71386406507216    1.86514458613841    0.27889280905089
H        11.63252306205573    0.82348552624231    0.55196665950581
C        12.17644703164372    2.23666784161513   -0.96391778296296
H        12.46444878635947    1.46880978683240   -1.66659558952114
C        12.27912974641593    3.57161446977731   -1.33612741218459
H        12.64095113350970    3.84194278263840   -2.31412747787317
C        11.91225966881027    4.56034501710180   -0.43415396571568
H        11.98181494394761    5.60790933648425   -0.67915198069388
C        11.45569289931485    4.16973713336850    0.79781327273576

