58
CSD_code = MOFPIG | q = 0 | S = 0 | Stoichiometry = C21H28BrN2O5Re | MND = 6
Re        7.57736378277194    6.09878920897414   15.35215498626361
Br        6.32868383158748    5.67855107435249   13.13805959301192
O         9.57270357136825    3.92517606952224   14.41645810249586
O         5.71027110923167    4.00110064977159   16.65411274269396
O         9.08573010284024    6.79029769195799   17.95541129435948
O        -3.72384867804700   14.65831792375620   23.84087085455292
H        -4.30034832625664   15.43843854585648   23.82211455392417
O        -2.78773992658887   15.63038735489222   22.06762510032178
N         8.51109320168806    7.69871083133634   14.24778583375891
N         6.21459088742845    7.72532846255723   15.55260389207626
C         8.85091399262534    4.71162325351360   14.82674864775677
C         6.44108009744382    4.76379763155636   16.21373443821922
C         8.53113238390946    6.51854905257043   16.98857253778677
C         9.65087753876223    7.65119492895284   13.56572961760856
H        10.24379185448483    6.75256117600844   13.67806703404272
C        10.07912726880189    8.67698503328361   12.74286216034604
H        11.00887467572758    8.57990521883708   12.20643725445121
C         9.29343299531756    9.81647632768165   12.61736966001565
H         9.59848624070909   10.62996281961179   11.97778876409897
C         8.11032745850640    9.88049945747969   13.32491696983872
H         7.45972595386965   10.73855054392143   13.25821920343005
C         7.74347116117218    8.80243930956692   14.13062883231781
C         6.50552208292066    8.77140041612033   14.87210863756520
H         5.83641642724805    9.62733254004242   14.80857581186752
C         4.97174352768212    7.69020996858457   16.27444115026211
H         4.43114428842660    6.78941457654366   15.96287543850828
H         4.35716125007544    8.56584116570257   16.03241319900639
C         5.21618671492230    7.61604683528141   17.78764182952545
H         4.25747365977704    7.45281871232100   18.27870954382010
H         5.85038055617716    6.74938454649242   17.99382322802889
C         5.89116218702817    8.86915453655994   18.34819822230126
H         6.77592801906029    9.09383239942998   17.74536946009306
H         6.24145679600790    8.64831361987733   19.35821643741516
C         4.99022421809212   10.10477870835747   18.40456192881688
H         4.51937444887887   10.27544366881744   17.43390165144812
H         5.61318725356522   10.97675535118512   18.61831342857110
C         3.90702342880021   10.00726073150766   19.47663808099033
H         4.37953706855702    9.85217157885601   20.44907522349923
H         3.26403581028596    9.14725238678473   19.28087586181530
C         3.04341935640106   11.26525366979066   19.52933409612445
H         3.67897992745818   12.13443896511848   19.71440890352901
H         2.55855957472694   11.41215426729524   18.56102951380740
C         1.97606242219843   11.18080115046758   20.61756549635959
H         2.46088853435824   11.05764408193544   21.58873223636996
H         1.35443920662454   10.29887341902692   20.44570949448710
C         1.09014138419835   12.42369799096034   20.64782063744587
H         1.71185570069601   13.30708302919535   20.80915709583713
H         0.59850498052624   12.53985562474025   19.67939474293651
C         0.02979540604520   12.34746622858043   21.74338589449797
H         0.52090280608710   12.24943074090986   22.71438524605417
H        -0.58194854059269   11.45509915015956   21.59128866399512
C        -0.86671483120967   13.58201542345654   21.74935751028389
H        -0.26087059114461   14.47807634060892   21.89403961196373
H        -1.36556368306707   13.68108837601170   20.78387838440811
C        -1.92195474434666   13.51169941751128   22.84805482917962
H        -1.45749315857054   13.44538593891042   23.83439089662684
H        -2.54945427790839   12.62534688863942   22.72821438207708
C        -2.82714838747216   14.71563498815760   22.84374115718424

