121
CSD_code = MOFWOT | q = 0 | S = 0 | Stoichiometry = C41H73Cl2NOP2Ru | MND = 5
Ru        6.08867515839752    1.38969973785442   32.98618231526185
Cl        8.13878436611920    1.76962950296268   34.08376040386544
Cl        4.28686648462562    1.01366419196238   31.49298020356360
P         5.97642060084801    3.69668401416622   32.45069343896893
P         6.64666369746655   -0.89669735919573   33.10343941031601
O         4.13453429330345    1.85783103436067   37.21681104934840
N         3.87959453020335    1.15745468291223   35.03822882590857
C         5.10989762872375    1.48719685631069   34.63129432468416
H         5.66076197868788    1.91273619312853   35.48877243430455
C         3.45178927295572    1.37464793812534   36.35232197473238
C         2.01614620054737    0.91546902700300   36.45522755080431
H         1.37782920100628    1.80098155038910   36.40476279983491
H         1.83475116547312    0.42262018762442   37.40848738100618
C         1.82821724401475    0.01853728789502   35.23673217083593
H         2.11254976644679   -1.00601081990843   35.47796288854461
H         0.80628491330746    0.01461146362322   34.86532244827173
C         2.79844260105849    0.61803816673318   34.22211859334603
H         2.32417549913235    1.42995811485451   33.66214464742893
H         3.18901107171446   -0.09253816205265   33.49667235349375
C         4.28451442489504    4.40412349824033   32.11347864184486
H         3.92170640006160    3.74106423297139   31.31423763238737
C         4.20456462268041    5.84741756883698   31.62456453199852
H         4.44807139548838    6.52916171755796   32.44165084531524
H         4.90256159273707    6.03254635127105   30.80670411563267
C         2.77986288313822    6.13140910924854   31.14675963661871
H         2.54772174348008    5.47881186641854   30.30173820691307
H         2.70604317159866    7.16510958004744   30.80080712434260
C         1.76924121955342    5.88696516946671   32.26437713430368
H         1.94946556414099    6.59693450494629   33.07559176036676
H         0.75754016078363    6.05827764265324   31.89092156870325
C         1.89320654147601    4.46474180122371   32.80572655855624
H         1.64311181824284    3.74886596225545   32.01946308622762
H         1.19086986789337    4.32106401388766   33.63049453551034
C         3.32134775764076    4.21665093477980   33.28318826273591
H         3.43489768678516    3.20347412474261   33.66868180975975
H         3.54724096927620    4.91199799250242   34.09125169679225
C         6.91806871914432    4.81715580465362   33.61528474126897
H         7.79161924703930    4.20007274214879   33.87007098617624
C         6.14348607256764    5.04391715596930   34.91347794524244
H         5.32947805674928    5.75121508424478   34.74067141741554
H         5.71684226439382    4.10232391107423   35.26593262285913
C         7.07271008182220    5.62615292614920   35.97391212472362
H         6.52637088944610    5.76672423626424   36.90874562733411
H         7.88774270416351    4.92517913430443   36.16254538824669
C         7.63775238913606    6.95770991860528   35.48990262747410
H         8.32993991537681    7.36382494012834   36.23019344183158
H         6.82209616443902    7.67554698244700   35.36784321027712
C         8.35674264880988    6.77538144545472   34.15709913179791
H         8.72830013260758    7.73886694555113   33.79943365979608
H         9.21655369715789    6.11728723849072   34.30179675013294
C         7.43316547287515    6.16181599945419   33.10240841677332
H         6.60262844284229    6.84329501048715   32.90967845534406
H         8.00164499555830    6.04879596550673   32.17882000097519
C         6.83656608026470    4.01287959990616   30.82690240351105
H         6.90436964776161    5.09989749194496   30.69356937794216
C         8.24825150960694    3.42798487103334   30.89883598192795
H         8.79233537676163    3.83761249983585   31.75331504510982
H         8.17581470609411    2.34371273054039   31.05659196042703
C         9.01837453260577    3.71319212128685   29.61334140111571
H        10.01376871497253    3.26596173404018   29.67073526459887
H         9.14828391980420    4.79400489946738   29.50864855779695
C         8.27184703995786    3.17687651975025   28.39502907535133
H         8.81628458780493    3.43469201612473   27.48382045769289
H         8.21236072398841    2.08857308917110   28.44869920792189
C         6.85905741107047    3.74639443511091   28.33925279350022
H         6.90881100438345    4.83079060623224   28.20608380580865
H         6.32375036587071    3.33002021673837   27.48326595523262
C         6.09398611322394    3.43274769913948   29.62271863610572
H         5.09211506903929    3.85784607700404   29.54678404979391
H         5.98253761274430    2.35016745049734   29.73317407179986
C         5.25257495276489   -2.10841746215878   32.76017812762323
H         4.56476265015996   -1.50874257455168   32.14496618361320
C         4.53147851656725   -2.47175415890026   34.05911090738420
H         4.36559022398992   -1.57284885211418   34.65593380138216
H         5.15347077644694   -3.15211445745643   34.64320963113208
C         3.21263274744414   -3.17712441871675   33.75495503508246
H         2.69548874795780   -3.42242742969068   34.68591582552427
H         2.56570398726847   -2.51865679738664   33.17103205649894
C         3.48559463196631   -4.45250053796865   32.96407915850261
H         2.54551138872563   -4.94996139591225   32.71769009271381
H         4.07622965635127   -5.13948355326457   33.57542953893068
C         4.24871913426659   -4.12477004436703   31.68562154882271
H         4.46570533677701   -5.04401800838849   31.13685676737953
H         3.62622162315747   -3.49288197460443   31.04804943768101
C         5.55734053565565   -3.39060221192184   31.98533315379541
H         6.04158552557699   -3.17120521386568   31.03353832596827
H         6.21493376549764   -4.04092275380562   32.56576386735054
C         7.63211295525602   -1.47408173639084   34.57500613330227
H         8.52237870011085   -0.83387682231136   34.50280396395708
C         6.99700970006492   -1.13738108055384   35.92360410584627
H         6.67024242766369   -0.09498243137285   35.91803360141738
H         6.13078321719435   -1.76839388790640   36.12383569269225
C         8.02796474420356   -1.34917236418755   37.02952109964374
H         7.58357224722713   -1.11039704057479   37.99761371101501
H         8.86904878481215   -0.67171954100191   36.87069733182707
C         8.52228865629758   -2.79313026905282   37.02378394051076
H         9.27621276652489   -2.93248670563454   37.80113937396123
H         7.68726009002518   -3.46277104102196   37.24614854137436
C         9.11126631631429   -3.15506138161828   35.66317372870475
H         9.43508654352227   -4.19878785349342   35.66231496048876
H         9.98860629924487   -2.53230349328667   35.47346401963467
C         8.08426660172737   -2.93254967505659   34.55299969236503
H         7.23464193173373   -3.59629503458342   34.72274187805612
H         8.52778645506308   -3.19149443543876   33.58953922444405
C         7.82459747281708   -1.24065219502594   31.69804837936089
H         7.87196805117581   -2.32563470502228   31.54575683004138
C         7.22678943190055   -0.57503607151869   30.45649498861466
H         7.16959490869781    0.51077942806840   30.64282259634532
H         6.20417255178380   -0.92485199027922   30.28507808378473
C         8.08206042090427   -0.83953545729664   29.22309642815903
H         8.08004551915130   -1.91275334619996   29.01247944879125
H         7.65064885790576   -0.33345831440696   28.35584540734717
C         9.51762701091810   -0.37299568843300   29.44768648562134
H        10.12679791611023   -0.61119732862403   28.57284356908943
H         9.53774804114759    0.71002079033790   29.58154986294885
C        10.10382933783917   -1.03165127299161   30.69082303345535
H        10.15494249667163   -2.11376196517267   30.53976187195406
H        11.12063066016970   -0.67018392429848   30.85762706340063
C         9.24961405242750   -0.73349416437978   31.92147086141162
H         9.24255970266333    0.34192065192262   32.11901047106387
H         9.70168112616612   -1.22384698664723   32.78458320412061

