121
CSD_code = MOFWEJ | q = 0 | S = 0 | Stoichiometry = C43H72Cl2P2RuS | MND = 5
Ru       12.90120948378558   11.33478977988628   13.64278794971056
S        13.46103951004087    8.17761266491973   13.93340896956412
Cl       14.54783060666988   12.92165426035021   13.07057469468507
Cl       11.08347489900217    9.96833970277566   14.27142641293423
P        13.39971790068828   11.82645776206095   15.89378278273929
P        12.18087261517818   11.29662569606856   11.40172305985033
C        13.93407953029768    9.74335837801004   13.47256900092387
H        14.92191126145909    9.74239194616078   12.99614032158097
C        14.89065205208090    7.19212043612727   13.47140354718410
C        16.17829589227573    7.58961389046263   13.79580997433714
H        16.34610936444705    8.50671521245280   14.34070827112554
C        17.24957675720025    6.79704515703463   13.42219941784620
H        18.25352040219985    7.10675166955205   13.67159349769790
C        17.03648786664938    5.61056569961433   12.74045679426114
H        17.87593001401067    4.99615589342227   12.45155635437718
C        15.74566755439663    5.20939073352166   12.43611530612096
H        15.57605241902863    4.28193377284744   11.90983314093342
C        14.66968745459956    5.99712193056100   12.80303872123427
H        13.65892926701364    5.69801627475934   12.57348162313904
C        10.81535093058329   12.55081909145570   11.22401922384106
H        10.52332366879711   12.60097696891617   10.16689144734785
C        11.31157272118612   13.92776469428619   11.67023615228479
H        11.64657236850781   13.86432574506239   12.71630065130914
H        12.17166666890824   14.24444659160961   11.07623266657909
C        10.20526196608619   14.97031244805852   11.53421949487017
H        10.56845357924412   15.94076774665999   11.88159952008463
H         9.94837616593018   15.07397542359654   10.47629570993023
C         8.95813835754765   14.56846492972803   12.31598940984660
H         8.16791625254765   15.30516713077830   12.15499623338492
H         9.18361812081298   14.55210895142317   13.38348956159463
C         8.48253461714374   13.18442482587622   11.88884429103127
H         8.17552304575001   13.21077006110930   10.83944819142340
H         7.61536509980575   12.88885734696659   12.48284263056552
C         9.59865229977963   12.15983260231250   12.06619277979625
H         9.23318574795271   11.16936708565629   11.79395848132571
H         9.88387009876909   12.11060862022550   13.12130953635915
C        11.37962638567782    9.71128217275063   10.82474691130590
H        10.83848359667656    9.39262898102510   11.72898639908196
C        10.38077002170455    9.75541712274685    9.66741122119314
H        10.89463957030331    9.95227001281209    8.72594934031076
H         9.62986147094210   10.53253932738643    9.80655737578590
C         9.68014262582682    8.39845616389808    9.57726995543511
H         9.13821044523455    8.21235008738392   10.50723519920489
H         8.95253893423553    8.41439953041241    8.76233156694242
C        10.68833123448560    7.27608999072546    9.34799497998035
H        11.17372457029535    7.41895187426309    8.37885820266775
H        10.17219885428345    6.31425635691405    9.32241215606495
C        11.74844887717722    7.27177456672580   10.44581995374739
H        12.49308996904324    6.49888870025637   10.24074149052890
H        11.28263659644298    7.04908158381994   11.40802189839522
C        12.42445214417214    8.63725317125090   10.52058631075370
H        12.90277919114524    8.84498253282111    9.56104167275176
H        13.19661692926633    8.63598058448026   11.29254034631711
C        13.40523020284163   11.87087508990361   10.11452609796190
H        13.60740311459070   12.90650676349292   10.42069433807169
C        14.74716618212357   11.14150149686435   10.20164398025344
H        15.09268997384296   11.14954952809423   11.23612489290246
H        14.65119979893133   10.10556772031129    9.87522047644115
C        15.77454929242751   11.85406326605049    9.32518727792577
H        15.92667266103377   12.86548736855705    9.70708925817850
H        16.73064200558309   11.32933452826412    9.38000523626321
C        15.29830750119647   11.91768174819067    7.87736172615132
H        15.21468399469345   10.90344087663013    7.47808510800462
H        16.02655279572776   12.45643159242874    7.26756497446831
C        13.93973278146884   12.60636124513467    7.79311739805281
H        13.59206130987828   12.62285314202794    6.75724400184200
H        14.03641905914119   13.64099051253221    8.13040617893844
C        12.91840517850044   11.88030831542166    8.66773266080621
H        12.81613216659106   10.85629855648546    8.30474500715483
H        11.94887867113007   12.37412918267079    8.57896327358421
C        12.51325128269313   13.40274633925809   16.34246273372465
H        12.51095950492325   13.50691464928409   17.43417613658984
C        11.07914886746576   13.24193128615687   15.83323177641673
H        11.12152902089862   13.10856019710465   14.73885139390535
H        10.61994754102064   12.34165696393344   16.25123227621216
C        10.23244860956281   14.46392815064182   16.16729047320340
H        10.15918319946090   14.56060288526653   17.25407695663670
H         9.21903722154867   14.33279169523310   15.77992984376036
C        10.86174415783285   15.72829011084596   15.58972571253072
H        10.87667999940295   15.66820113550834   14.49942499515587
H        10.26633719181719   16.60116708514571   15.86641283302071
C        12.29068455600077   15.88606835894236   16.09682535237616
H        12.27801750871112   16.01419763476887   17.18294706549263
H        12.74345353111818   16.77918932085435   15.66114800548862
C        13.13566748672270   14.66392136075970   15.74307535653859
H        14.14470603231219   14.81424602218384   16.13030901271301
H        13.20972425760034   14.56594964983867   14.65569388701784
C        15.17154548224337   12.23554357515037   16.29429889490956
H        15.34571195967346   13.13349144266333   15.68555907623088
C        15.46440068557966   12.56856348926062   17.75443210284625
H        14.76354210509157   13.31783032991037   18.12869716458436
H        15.36674760257106   11.67319892344648   18.37070131370102
C        16.89344839634743   13.09604578534689   17.87735192669403
H        16.98999178310378   14.01892975262747   17.30067037735276
H        17.11236143802377   13.32916343035562   18.92214809034711
C        17.89080443898446   12.06752084707271   17.35233636785744
H        18.90610636698584   12.46144735692561   17.43172524236205
H        17.83499108894150   11.16376514594038   17.96485406090778
C        17.58067924016131   11.71509645067997   15.90037206395692
H        18.28795981630464   10.96435592480882   15.54051783993071
H        17.68980133313075   12.60406221385240   15.27599353214110
C        16.15392796875749   11.18739589060591   15.77335460233753
H        15.92467177605043   10.99207624378849   14.72240714944977
H        16.06394773605477   10.25492874557661   16.33230224242776
C        12.71995866347843   10.60974466777441   17.14262267656394
H        11.81102390528028   10.24663633914424   16.64060014682712
C        13.65544134808429    9.40859813406634   17.28369813617190
H        13.96734575176256    9.07075601553457   16.29336428718502
H        14.54452235372979    9.68906885795523   17.85243577194506
C        12.94357941246071    8.27568553914733   18.01550079450913
H        12.07045341479207    7.96859025571709   17.43712952367176
H        13.60931706863233    7.41423468633357   18.10350898451142
C        12.50838362781249    8.74623814654269   19.39949104363189
H        13.39199149063721    8.99567595627678   19.99314557821802
H        11.97417841894219    7.94718029167145   19.91737526766033
C        11.61272313158663    9.97473091388990   19.28183673024751
H        11.32450557517031   10.32270973995566   20.27678488727729
H        10.70163456918347    9.70284866210883   18.74421247344342
C        12.31432893722244   11.10741752853743   18.52938923822267
H        11.62142984435990   11.94702576991401   18.46221571469229
H        13.18991863277511   11.43024528465785   19.09556019713074

