112
CSD_code = MOFXAG | q = 0 | S = 0 | Stoichiometry = C42H63Cl2N2OPRu | MND = 5
Ru        0.14590256934944    8.98013804336654    0.74859381229779
P         0.00291984787153    9.55799823476563    3.03483004748106
Cl       -0.80574699729684   11.07852798398797    0.20631017145539
Cl        1.26499604460607    6.97220486928706    1.28411744750501
N        -0.04301299175844    7.98698021234115   -2.14226437864975
N         1.80887029144376    9.00866055733877   -1.82200158945165
O        -1.84913911177788    7.04424592720915    1.15069830238936
C         0.66066876919120    8.65530320114353   -1.20322009271719
C         0.65221084453292    7.92390515031742   -3.32366255405223
C         1.81892425238223    8.56725260162973   -3.12216694018169
C         2.91701617141902    9.76740662933422   -1.34760304964723
C         4.04761907522627    9.09316211558097   -0.88000863279272
C         5.17932748318874    9.84028875271630   -0.58968115261066
C         5.21055240746724   11.21690467703015   -0.77323782545953
C         4.07297786293999   11.85482849440703   -1.24400641590259
C         2.91632384805813   11.14884620975407   -1.54759946342848
C         4.03733992261296    7.60654774287492   -0.72629631660883
C         6.45641051399927   11.98861157857688   -0.46153197832471
C         1.70879308432010   11.84045080916840   -2.09419147746729
C        -1.34013019832911    7.41263733828992   -2.05979526861249
C        -1.46197519765574    6.04918282535654   -1.78935122284021
C        -2.72516525053073    5.47838703940045   -1.86038891329475
C        -3.84561817425599    6.23123841063688   -2.18181447171222
C        -3.69076579173179    7.58604550059518   -2.44714608745752
C        -2.44445810957878    8.19375059236540   -2.40888401309632
C        -0.25910735505760    5.24125641429796   -1.42710896365471
C        -5.20094788487466    5.59568437909651   -2.26515302600155
C        -2.27348934917061    9.64325873093848   -2.73331676472305
C        -1.57700476223884    8.21565193476571    0.65716054440547
C        -3.20807705701309    6.62509545589135    1.31105393675715
C        -3.21742075226116    5.14152914003540    1.62906846554916
C         0.40001178002346    8.21208635249686    4.26941991548352
C        -0.67761603728062    7.12795548123192    4.23920461667420
C        -0.17996286701740    5.87744728256617    4.95875014491742
C         0.21396537689837    6.20243986291737    6.39628193834827
C         1.25561863002050    7.31672170833507    6.42522240513319
C         0.72357612847729    8.56429811855417    5.71963505171264
C         1.47253287586356   10.68470300080824    3.24857970445361
C         2.56113792852317   10.10476815656755    2.33883209340715
C         3.85245988867973   10.90117107532251    2.47363317442442
C         3.61458846072141   12.36893004178801    2.13657304766625
C         2.51568898481103   12.94700024997822    3.01997462054506
C         1.22438580335653   12.14545788234921    2.87215575972426
C        -1.42641608554803   10.59903084831352    3.62529714434516
C        -2.77943904831205    9.94284621720412    3.35916445115965
C        -3.89189997612005   10.97085165990047    3.55106440892843
C        -3.84800593649652   11.55688564430344    4.96000668617176
C        -2.47569236980015   12.15754759777617    5.25336827291220
C        -1.38768791418333   11.10129412785142    5.06528175792373
H         0.25361651380343    7.43370113905122   -4.18842087438211
H         2.64804311669235    8.75477378508408   -3.77372368216341
H         6.06540372176040    9.33347891364063   -0.23349985040694
H         4.08917242624142   12.92393393288036   -1.40262042724535
H         3.24226639214950    7.29478803047056   -0.04504510236747
H         4.98747039202770    7.25417204987934   -0.33428824690144
H         3.85487017014957    7.12093796649492   -1.68543846564405
H         6.37373441757988   13.01700484249630   -0.80340143740533
H         7.32065270455294   11.52790118125685   -0.93713087447550
H         6.63362154809160   11.99673046013252    0.61385633711714
H         1.41909593506358   11.41318273956635   -3.05452732479661
H         1.90163983827708   12.90126136003194   -2.22901199841799
H         0.86064285087888   11.72770760077662   -1.41479027762188
H        -2.83491785134966    4.42006493608157   -1.67036625584296
H        -4.55766521871007    8.17818846483920   -2.70410055874499
H         0.49392142938816    5.28837259420169   -2.21333355023585
H        -0.52514973533515    4.20099420524403   -1.26109259828595
H         0.19191296569064    5.63823724167501   -0.51541524591483
H        -5.95704390203966    6.23652315457247   -1.81539725430521
H        -5.21109264722447    4.63148522972390   -1.76310063139160
H        -5.47561858009624    5.44027137696493   -3.30856292196458
H        -3.22909871111259   10.09981799748476   -2.97548008325219
H        -1.60148405661832    9.76994204112945   -3.58201606698896
H        -1.83719328036528   10.17514068122915   -1.88599031051921
H        -2.45866875587920    8.75520870701344    0.25243605824626
H        -3.76336690868706    6.83883380754434    0.39056242470074
H        -3.65168966749817    7.19953680561897    2.13485252418957
H        -2.74267454676431    4.59131447963476    0.82283261825096
H        -4.24000675971636    4.79532985454421    1.74961188384825
H        -2.66418177037716    4.95512693138857    2.54516021440224
H         1.30375334696474    7.76751769630975    3.82547212292624
H        -0.90733794853395    6.88052938334904    3.20212339433336
H        -1.58756090531627    7.48998125141920    4.72503557534616
H         0.68374911199143    5.48342775165165    4.41993292776113
H        -0.95755995232664    5.10970876045493    4.95189386922005
H        -0.67157351227280    6.52219248340701    6.95253953180091
H         0.60992803397795    5.31026118457846    6.88611388231200
H         2.16480802192373    6.97555536550571    5.92503710862353
H         1.51204190688608    7.56069582161737    7.45928732593764
H        -0.17327524312246    8.89860727175104    6.24102701086163
H         1.46868520340871    9.35851882245151    5.78773367282392
H         1.81794930388252   10.64575396575258    4.28959342152020
H         2.75367123120388    9.05502761145732    2.58584787606525
H         2.20353950545574   10.15161308767729    1.28434460425955
H         4.61590482182175   10.48233031071143    1.81660258040683
H         4.21057886200365   10.81594172671324    3.50404221372221
H         3.31377864231464   12.45126058544120    1.09081752579802
H         4.53831561653500   12.93725442377559    2.26685521934973
H         2.33016698231044   13.98844889169582    2.74897406009883
H         2.83821347738676   12.92663711484544    4.06543480070515
H         0.46368604087600   12.58750231890212    3.51701704423667
H         0.86992830981263   12.20763823379026    1.83964527436588
H        -1.36446064028685   11.46238013190105    2.94659249348394
H        -2.93617919039437    9.10176443024013    4.03884841886117
H        -2.79801978877870    9.56755042137408    2.33288684227511
H        -3.76385617721105   11.77062570375451    2.81878999215614
H        -4.86465742211296   10.50596769833233    3.37325106440615
H        -4.61979329583030   12.32182673087159    5.06744462049227
H        -4.05805274680342   10.76778238910885    5.68698269318718
H        -2.44872403513346   12.54008703664799    6.27647537757241
H        -2.29288208760476   12.99528879838920    4.57656172980540
H        -1.59037083620131   10.27576245037566    5.74893977481139
H        -0.41014629505419   11.51688077435752    5.31575060589676

