45
CSD_code = MOFYAH | q = 0 | S = 0 | Stoichiometry = C12H20N2NiO4S6 | MND = 6
Ni        0.00074513191025   -0.00243355527262    0.00000655933024
S        -1.62386362645387   -1.84468222427150    1.32500033389324
S        -1.32987267808490   -1.42961150192701    4.32669888341930
S        -2.11566969618903    1.84105234663824   -0.36333459139917
O        -0.72418672613907    1.01584651086637    1.44819828679033
O        -1.37154293076419    0.73823895650921   -1.05939970726854
N        -0.86687373370803    0.36548209798883    2.60397473536899
C        -1.27565389954298   -0.91733152685111    2.65769251153213
C        -0.75578922951810    0.12858473911435    4.84651639874728
H        -0.60806542033148    0.32670205497451    5.88668870620664
C        -0.55110110250170    0.95454628398727    3.80136643719841
C        -0.05085633432697    2.35254802113562    3.78359668342989
H        -0.86884699852128    3.04305894302697    3.57920271653523
H         0.67384800310647    2.45450967700552    2.97642922198779
H         0.40569084829452    2.60712611636340    4.73510335853556
C        -3.64718819639796    1.03504537175290    0.23569870249656
H        -4.15151388539416    0.54988189050028   -0.59157508848072
H        -4.28113408867223    1.78324733306347    0.69754195629217
H        -3.35359805191460    0.28678341203293    0.96461788856588
C        -2.90170672739208    2.64156406414946   -1.82636118302509
H        -2.12211927294764    3.18287131013480   -2.35159136786717
H        -3.66684896999660    3.33112104850352   -1.49057606141217
H        -3.31906200852711    1.88159803668540   -2.47587942134923
S         1.62342887305979    1.84259805103109   -1.32537815410627
C         1.27258484329874    0.91625117805880   -2.65810241951260
S         1.32102992044830    1.43045164161868   -4.32666301827297
C         0.74689165107199   -0.12775276286656   -4.84636447892013
H         0.59607706632404   -0.32484635167131   -5.88628516747466
C         0.54643122681676   -0.95510761481430   -3.80150063178329
N         0.86545499773723   -0.36706474684438   -2.60447294106502
O         0.72678162142239   -1.01858625618054   -1.44888523869204
O         1.37271067438689   -0.74343360850997    1.05960537092751
S         2.12134767032172   -1.84239070488182    0.36225135323066
C         3.65074575086757   -1.02986986097232   -0.23339211067348
H         4.15349922883890   -0.54590705481399    0.59554919081918
H         4.28705466117198   -1.77455468500363   -0.69764731067817
H         3.35490185044039   -0.28005290650904   -0.95983800904800
C         2.90867293286546   -2.64311732046603    1.82447642867712
H         2.13037239545091   -3.18811834766997    2.34777490190159
H         3.67646741061707   -3.32941632526835    1.48805594325741
H         3.32281376269277   -1.88312695523660    2.47603685838100
C         0.04752680773210   -2.35357408685086   -3.78371771083201
H         0.86675325119811   -3.04356563752368   -3.58255967000252
H        -0.67463901275127   -2.45702117786885   -2.97445941443285
H        -0.41169798999816   -2.60754387286104   -4.73409973122287

