75
CSD_code = MOGFAQ | q = 0 | S = 0 | Stoichiometry = C34H20B2F2FeN8O6S2 | MND = 6
Fe       -1.76352799368585    2.95209196468825  -20.30262775673039
S         1.07620746719589    1.01675745645730  -17.55148264961944
S        -1.29584562955048    3.20820511418161  -15.93293663620635
F         0.61071510207210   -0.15790157842231  -22.11036935155137
F        -4.11707522221688    6.05156346203365  -18.45005914660651
B        -0.12425229633908    0.81420232478882  -21.54697609383454
B        -3.38736997933021    5.08223509652991  -19.02494004263998
O         0.55339424529882    1.28805573636028  -20.28756103915146
O        -2.99640972010114    4.06572381970918  -17.98380089415735
O        -1.46994161066557    0.28627972270505  -21.18967183019650
O        -4.17249993260400    4.41906182828329  -20.09263672756954
O        -0.27142283057289    1.95072154919311  -22.48658118634776
O        -2.14639651406076    5.66324929175220  -19.60754931131235
N        -0.25459130838327    2.09326020091030  -19.57195385732501
N        -2.07839592790638    3.20483613280865  -18.46274122726260
N        -2.35363972742715    1.25625942385222  -20.87221643963198
N        -3.59642994737374    3.29422983944814  -20.56825067172876
N        -0.80610535389091    3.05426171453185  -21.92129166208654
N        -1.49807332274313    4.81265524673606  -20.43144019488201
N         2.60948209105013    0.17641819525849  -14.40573237904186
N         0.13393823835359    2.54333719364252  -12.69790980617768
C        -0.16297643703954    2.02252742081777  -18.27290687653859
C        -1.17755677231781    2.77170799132048  -17.62500121616593
C        -3.59728640264945    1.12866549250592  -21.25098274932173
C        -4.36548582733695    2.30291681462804  -20.93232933559238
C        -0.39450859104013    4.22658976508817  -22.32502487147551
C        -0.93276307802294    5.28381983963444  -21.51068875306969
C         0.89049718004030    1.41151709771136  -15.84386418139466
C         1.83651929489801    0.73412586579195  -15.04103333611478
C         0.00633291245423    2.24622737723277  -15.23634103421010
C         0.08441846899600    2.40323841941047  -13.83364878793670
C        -4.14451492632548   -0.02747495190080  -21.96468393851460
C        -5.04561491843441    0.17563024943897  -23.01175247884258
H        -5.32650925432123    1.18025432246883  -23.28883638031324
C        -5.55777786565923   -0.90297438232903  -23.70519771795733
H        -6.24965963323307   -0.73658618629228  -24.51716147246605
C        -5.18405862071459   -2.19350985990075  -23.36398718050552
H        -5.58849885095378   -3.03440129125029  -23.90693626334364
C        -4.28613840024393   -2.40075230862651  -22.33047803199985
H        -3.98790297310933   -3.40374592564655  -22.06573145918771
C        -3.76311271982672   -1.32664684264388  -21.63445177590148
H        -3.06215084445355   -1.49052104858472  -20.83214673417886
C        -5.83006860725718    2.33945613901691  -20.94403267156546
C        -6.55313084086433    1.23411250387154  -20.49229262470102
H        -6.02934025297782    0.36381510638341  -20.12758030787501
C        -7.93376854125703    1.26228834923391  -20.48987734387877
H        -8.48515676373248    0.40536957854593  -20.13324357179363
C        -8.60984638774460    2.38585938086760  -20.93903857900915
H        -9.68926842628606    2.40345947690257  -20.93727455591691
C        -7.89777538837438    3.48769410438079  -21.38229059036768
H        -8.42043761351256    4.36708635662956  -21.72671068531469
C        -6.51538275847123    3.47111322244778  -21.38268216742625
H        -5.96273058694594    4.33095294500969  -21.72551410028030
C         0.55701206679593    4.45062921972585  -23.41627521979117
C         0.49532088730420    3.69712942069455  -24.58725722856016
H        -0.26658147152843    2.94238766687891  -24.69743628052089
C         1.40472546070312    3.92100493905590  -25.60419393215492
H         1.34766829890838    3.33501790562449  -26.50890018894873
C         2.38650403818151    4.88740981992165  -25.46370145173727
H         3.09678746200492    5.05752053345741  -26.25870321892228
C         2.46066598343424    5.63121420110657  -24.29644476874248
H         3.23133179795712    6.37801507128779  -24.17857159082741
C         1.55299960429351    5.41888890316636  -23.27761283288871
H         1.62279053924251    5.98878690475182  -22.36376498104189
C        -0.89604812333583    6.69779068666947  -21.89133352071569
C        -1.10462979394725    7.05539085617407  -23.22480962578815
H        -1.29470273585063    6.28924923780832  -23.96092552984672
C        -1.09069421243067    8.38509693049914  -23.59665996634965
H        -1.25865613778597    8.65316566820430  -24.62893980660219
C        -0.86556490980717    9.37241238823908  -22.65004324767231
H        -0.85331070461691   10.41083077352373  -22.94500774566275
C        -0.66378944402286    9.02410176302876  -21.32515801239415
H        -0.49427001638490    9.79024812890060  -20.58399891586184
C        -0.68233208894502    7.69568391415238  -20.94219264628952
H        -0.52783190057602    7.42730630951597  -19.90971861145921

