73
CSD_code = MOGGOF | q = 0 | S = 0 | Stoichiometry = C28H38Cl2O2S2Ti | MND = 6
Ti        0.79841347629683    6.42935558998525   16.06177326583416
S         2.36743183316829    4.33168731272149   17.21867001970316
S        -0.69083709966064    5.70991157539134   18.34288341298046
O         0.14850160400207    4.94695061438286   15.52811601266791
O         1.48970687804647    7.25330117292766   17.37713688911084
Cl       -0.70714971038757    7.88451400385051   15.42679572640639
Cl        2.35580044431164    6.68079411384053   14.53868462065189
C         0.64391072636560    3.77256031306582   15.18619473964030
C         1.72929625941202    3.27723453133412   15.92441414050454
C         2.32364052526034    2.06390496738113   15.62229529832468
H         3.18040259139703    1.73612014029150   16.19076251678300
C         1.81608128614668    1.29883637589994   14.58739198940834
C         0.73408331316878    1.78782263994018   13.85686253276891
H         0.36993758464770    1.17762311855454   13.04617814185901
C         0.13255601123826    3.00754803741426   14.11536767530719
C         2.41719283588021   -0.02891862582959   14.23633144982168
H         3.26415092336015   -0.25290854819838   14.87936122051571
H         2.75673448883866   -0.02919440844048   13.20162435258201
H         1.67799753440800   -0.82230543166979   14.34392304252722
C        -1.00614457506736    3.57540893916434   13.27927577527571
C        -2.21975538953991    3.85620958600560   14.17883600955601
H        -2.53851357408649    2.94337861721698   14.68049080338652
H        -3.04637938661159    4.22643761106179   13.57682060084694
H        -1.98782028333823    4.60987196286889   14.93116266763359
C        -0.52859003329688    4.88049193954850   12.62170850514903
H        -0.29019798145263    5.64231165510253   13.36800577559578
H        -1.30926290207934    5.27522197266148   11.97500064153324
H         0.36150415220723    4.69650536236939   12.02211904014480
C        -1.44565450419202    2.61436308238333   12.17027551499022
H        -0.63263507475791    2.41958226581205   11.47503263190837
H        -2.26297377876529    3.06426855456305   11.61113616137409
H        -1.79966625659733    1.67198976709803   12.58273215457511
C         1.38120089600555    3.75881444602472   18.68773714476238
H         1.77271646803099    4.38107820846811   19.49973361715224
C        -0.12336363330391    3.94695635763412   18.57131437228104
H        -0.49976541594533    3.44361905818280   17.67311201915527
C        -0.82418768187044    3.39235195695999   19.81174826729663
H        -0.49900138072431    3.96383565207145   20.68267376637295
H        -1.90007500551970    3.52945612719327   19.69706880997542
C        -0.49193600356310    1.92032612145747   20.02985754767764
H        -0.83776969087355    1.33331088963202   19.17658683566584
H        -1.00817281645709    1.55825864535685   20.92001928605498
C         1.01401431400857    1.75856545457474   20.18639572124633
H         1.35339226740841    2.31014295904753   21.06550268027877
H         1.27125190739972    0.70782762752287   20.32700078160142
C         1.71647392442178    2.28962645253371   18.94157320530970
H         2.79805132940797    2.19342882475879   19.04508280871878
H         1.40421505190899    1.70170747654260   18.07541191852534
C         0.45709420722894    6.61978515190585   19.36708412946453
C         1.47188317546679    7.31655365597679   18.68921654971533
C         2.42028645352971    8.05119640230792   19.43506332406900
C         2.27645979053316    8.07080287098738   20.81118265364238
H         2.98025322394144    8.62419203033315   21.41163995858120
C         1.24273976498860    7.41606049273077   21.47977638392617
C         0.32308460419491    6.69042888546850   20.74327324661654
H        -0.50148350885924    6.18920347565055   21.22636291303828
C         1.14246126580203    7.50617168956949   22.97287048181070
H         1.12324050071694    8.54774974544813   23.28967317956033
H         2.00522017581787    7.03234388991553   23.44117434300641
H         0.24069396951984    7.01696445244696   23.33196472255470
C         3.53794727521395    8.77276198253289   18.69584968608971
C         4.36345081786615    7.74309333331595   17.90737035369592
H         3.76630193641162    7.25893358276700   17.13297440147559
H         4.75069714033091    6.97582929579866   18.57618645656350
H         5.20286154426757    8.23700146826921   17.42338137157212
C         2.92692802523581    9.80255443457347   17.73301392542869
H         2.31865385713113   10.51865452792230   18.28306952340839
H         2.30147057697341    9.32145162471181   16.98021889035098
H         3.71942853396204   10.34178276758974   17.21885355244617
C         4.48076361520550    9.51151842017592   19.65073540684315
H         5.25745980004560   10.00736398894119   19.07294884397533
H         4.96378789576613    8.82128465650437   20.33874541052755
H         3.94900891005819   10.27183210750491   20.21818818018581

