88
CSD_code = MOGGEV | q = 0 | S = 0 | Stoichiometry = C40H37Br2N2O6Rh | MND = 6
Br       -2.43730856603631   10.71541561338161    6.27239476649337
Br        3.62829379058334    3.26265312457505    7.55120245835725
C         2.89658207371251    8.23045099908758   -2.00654016827516
C         3.54841304751496    7.27162717908983   -2.77405026851388
C         3.07893130512167    7.01460535852579   -4.05980679279453
H         3.56201909233421    6.27773378829898   -4.68343059499029
C         1.97718148044696    7.72374980588101   -4.52533155004549
H         1.61184079212055    7.52126643862084   -5.52104348642280
C         1.33191487149492    8.68722247899737   -3.75926013713133
H         0.48268950678140    9.22504158180717   -4.15301402211469
C         1.80166719666384    8.95172570282499   -2.47422722258784
C         4.65419853473242    6.71758454452828   -2.01769258533944
C         6.48015753967317    5.59619526569034   -1.43859518690531
H         7.44912111347922    5.95568397306222   -1.79681337770743
H         6.54311528403372    4.52367997370658   -1.24971770395918
C         5.95916962702070    6.40138870204133   -0.22578423413044
H         6.70809353609506    7.11541831728946    0.13675062699026
C         4.39880165917310    4.54884734866983    0.57907627718055
H         3.52732670569630    5.08297024358343    0.20709498852242
H         4.09793489945180    3.98465819377912    1.45855415876716
H         4.73803654645097    3.84299178554674   -0.17619029029270
C         5.48576310075569    5.54635148179563    0.96804899563235
H         5.03982595821030    6.24345320238384    1.68153593034845
C         6.67394278228451    4.86375140449744    1.63847293529854
H         6.34207886974060    4.34878953744670    2.53631371526900
H         7.42641075843556    5.59543267818474    1.92329647517782
H         7.13592754233557    4.13326331234369    0.97784610801267
C         1.36550723220469    9.89541159625548   -1.46436342666374
C         0.24177356003890   11.45671418383838   -0.35361871400069
H        -0.71613582906617   11.21582831123946    0.11412039221476
H         0.27104716926600   12.52217005884180   -0.58851122920241
C         1.44436151606608   10.98226992600867    0.49518277040511
H         1.10604581584280   10.52911751662619    1.43436233455706
C         3.05780728719585   12.74824294378975   -0.38977818888905
H         2.29568807934295   13.30746977254499   -0.92854895764104
H         3.49593006758773   12.01169864277507   -1.06022456940737
H         3.83704923993065   13.44599459959957   -0.09261892410130
C         2.48774953360552   12.06016501910493    0.84766129138498
H         3.30474504863012   11.52690129566412    1.34566051131523
C         1.89145383034059   13.06473270517283    1.82937330422410
H         2.65012042104494   13.77938041952356    2.13769559411406
H         1.51731751830755   12.55806280034852    2.71621477201269
H         1.06993378992536   13.61557247301613    1.37646085974776
C         1.78867439302503    8.00995051598081    2.77406702855181
C         1.50049199404422    7.71342396471151    1.43681755134649
C         0.16747481893711    7.91506417888083    0.97064165549546
H        -0.04554412772722    7.61717689983542   -0.04672395210552
C        -0.79404832772804    8.45806411878222    1.76455742151534
H        -1.80051986809760    8.59931147778641    1.39531310588217
C        -0.49371951238262    8.85731167541280    3.08602259335657
C        -1.45639014451278    9.48046971315006    3.90131523451520
H        -2.44735888395111    9.65508364024057    3.50881010598524
C        -1.12998434500887    9.85968264475278    5.17282854023837
C         0.15338673144200    9.64484029374156    5.69288619710528
H         0.38278835058442    9.96376891850143    6.69799554016009
C         1.09853679154616    9.03511836980165    4.91790280718799
H         2.09015716625108    8.87600455888691    5.31364412997867
C         0.81220086992459    8.61806617565922    3.59723366688526
C         3.11718755416259    7.66678545233694    3.33598389136094
C         4.26636314096200    8.29929512325513    2.89623380081299
C         5.52001319465934    8.00045346865723    3.46753973979166
H         6.38689836047992    8.53390882282128    3.10343343669994
C         5.63277769644488    7.05382295345910    4.44297506090554
H         6.59273332418060    6.82936405783438    4.88316056055340
C         4.49655686196589    6.34168045682036    4.87819573032038
C         4.59921627882130    5.32791307077842    5.85164220821049
H         5.56500666668516    5.10359034832453    6.27952646807203
C         3.48480835636666    4.63961783054825    6.23662809821017
C         2.22762943126018    4.91146304170754    5.67906964713005
H         1.36851957536298    4.33974020661970    5.99456763664365
C         2.10815574751281    5.89577571347319    4.73995554075603
H         1.14408487325227    6.10009719810715    4.30081849561547
C         3.22729009554576    6.64685573513674    4.31635435964935
C         5.98108237881104   10.18442140864058   -0.56331318355940
C         6.94075465070734   11.08554986815287   -1.32262496979591
H         7.94224275117547   10.66517392336453   -1.28710185901171
H         6.96033686987988   12.05738414276334   -0.83321209788944
H         6.61038522823999   11.20428844719306   -2.34995448571318
N         4.84785426903818    7.13522491179179   -0.80554951204513
N         2.02020555332711    9.94960996823581   -0.34638571151625
O         5.51475346319256    5.81345057535329   -2.47261343438646
O         0.33539529965999   10.72739548986673   -1.58125774025999
O         2.39625956939767    7.20754178126609    0.62048597288381
O         4.18970857931558    9.25141438143881    1.92417653435631
O         4.85679579702717    9.99647919365921   -1.11084659263947
O         6.32629914749954    9.70440263846956    0.52826777944144
Rh        3.55203305410962    8.60804940289836   -0.24835661465890
H         5.11598299601198    9.46062894091135    1.57913197904822

