49
CSD_code = MOGHIA | q = 0 | S = 0 | Stoichiometry = C20H22Cl2O2S2Ti | MND = 6
Ti        9.93284500921991    5.81114872994694    4.57752581775522
S         8.65422193160634    3.67406755501967    3.35240184177311
O        11.03170980152611    5.35111412753471    3.32756987384602
Cl       11.20072696989648    7.17639601278996    5.71566019358143
C        10.97933828609299    4.58718529281282    2.25712438720173
C         9.90061283278337    3.70218921146533    2.07539936521269
C         9.79136909748952    2.92886319533035    0.93104952839863
H         8.92082463251727    2.30337858249878    0.80236976340307
C        10.77814192125368    2.96755732185781   -0.04251176554419
C        11.86742772159619    3.81567498383219    0.15085237546885
H        12.64225708597486    3.85646334116795   -0.60073017166603
C        11.97253137520932    4.61456854787920    1.26921344324531
H        12.80729377619839    5.28645121674088    1.40502926953664
C        10.67413737144153    2.13401506191770   -1.28318073613575
H         9.85715481711167    1.42169273486128   -1.20633564852608
H        11.60087573963905    1.59032804784098   -1.45768178317197
H        10.49451585995523    2.77076640829577   -2.14866667059958
C         9.20041695179253    2.21309583863274    4.37269295881715
H         8.56047177519494    2.28159780303371    5.25986120719734
C         8.87554615984050    0.94312482454955    3.58576404279490
H         7.82013791226755    0.96239211365010    3.31222529634947
H         9.46763758114527    0.93851776551772    2.66856904486654
C         9.19514727390389   -0.31230331762364    4.39014757695951
H         8.95344207685852   -1.19484320061523    3.79658233682050
H         8.58549030031196   -0.33661697332493    5.29549219160723
S        11.21122558556210    3.67405737700323    5.80289574384585
O         8.83387934819250    5.35126036900283    5.82745957730426
Cl        8.66543477258781    7.17715183663257    3.43969174704699
C         8.88604757738934    4.58732776533678    6.89791156738562
C         9.96467016160610    3.70222536735206    7.07974093250150
C        10.07367333008520    2.92881354357920    8.22405402159676
H        10.94418366589815    2.30330701456032    8.35286424934536
C         9.08674750695199    2.96752215155721    9.19745745373068
C         7.99754714529118    3.81571923437011    9.00395979509716
H         7.22264748104473    3.85659054953835    9.75546603625793
C         7.89268086730047    4.61469702100638    7.88563754857913
H         7.05796544637456    5.28661598091773    7.74971275161500
C         9.19052743167970    2.13395342492912   10.43812373861933
H        10.00748106781211    1.42158832180277   10.36137481383311
H         8.26373410049737    1.59031245031445   10.61245516985504
H         9.37004550322456    2.77066246282182   11.30366477541628
C        10.66525299270653    2.21311529782401    4.78245322910294
H        11.30520415052980    2.28171718092288    3.89529658581261
C        10.99022061080858    0.94316909672563    5.56938924477535
H        12.04562571274615    0.96249884460715    5.84294242294163
H        10.39812054034344    0.93847188286862    6.48657947459839
C        10.67072284834330   -0.31224912892792    4.76495195329821
H        10.91250358758433   -1.19478619859146    5.35848555439497
H        11.28038430461277   -0.33646707176606    3.85960787385329

