52
CSD_code = MOGKAW | q = 0 | S = 0 | Stoichiometry = C21H25Cl2N3Ru | MND = 9
Ru        2.20447267468701    9.22896316330109    2.94168586713696
Cl        4.09776359184140    7.86884005997444    2.86658229316887
Cl        3.53794619764604   10.97574458109530    3.73634888295399
N         2.01514638994615    8.44111546559055    4.86076818230858
H         2.69867391529069    8.38958273739952    5.61087680530147
N         0.13808082128650    7.44028780019493    3.88151410907217
N         0.78682914530468    6.58832269310051    5.79902533598499
C         1.07810528039454    7.53775307573391    4.87170320227303
C        -0.73145266452270    6.41363391603491    4.19569312221994
H        -1.55244161914094    6.15394985310789    3.55980014165781
C        -0.33289911582506    5.89471705725711    5.37390633628286
H        -0.73508440541562    5.08632456147627    5.94800275862660
C         0.31921447173342    8.28733468137830    2.75096667685465
C         1.08207675536405    7.83333348522842    1.64942781610157
C         1.62940829802085    8.82663186252058    0.77955937881680
H         2.22347552482101    8.49642352198537   -0.06635012644765
C         1.42933779554900   10.19756902336874    1.00016192276128
C         0.56208708697854   10.60269816449777    2.06408407050444
H         0.34883850206325   11.65805545079547    2.18938770869253
C        -0.03052258767378    9.67573084098672    2.92035842474379
C         1.39613194609352    6.38562680023691    1.42446584637593
H         1.29311373773964    6.13323365436648    0.37038446008601
H         0.74822600284792    5.73773810370832    2.01121852707794
H         2.43472491429288    6.20195744743146    1.71860175092464
C         2.03184283553086   11.24112288645185    0.10694258364667
H         2.71282645135326   10.79149135467845   -0.61166577406830
H         2.58793262290491   11.96234669903632    0.70611769091896
H         1.24891846831380   11.77628497953341   -0.43228027570158
C        -0.95527101689431   10.09014182761459    4.02894929631434
H        -0.43846471466615   10.06423638037162    4.98981675470946
H        -1.81237485997765    9.41862834868269    4.08532133996257
H        -1.30884463570705   11.10545384331800    3.86595330188443
C         1.62481511988358    6.27641101797394    6.90434548068331
C         1.22162464077922    6.63340342870968    8.19054668881790
C         2.06557432904172    6.33734698905221    9.24803904435586
H         1.76898507979153    6.60674416275610   10.25127150918399
C         3.29040149131143    5.71349522323589    9.04298893845434
C         3.66300435498794    5.37491818509248    7.75093083324339
H         4.61329982230655    4.89111439358360    7.58078660961929
C         2.84524375690921    5.64370265554828    6.66166590412908
C        -0.08805640356522    7.32933798676191    8.40813322842488
H        -0.17121869664643    8.19851843137822    7.75664402384675
H        -0.17761233358210    7.65812229589860    9.43962319055678
H        -0.92189702099824    6.66379405383955    8.18564051956306
C         4.19590821982308    5.43515572856501   10.20231459012563
H         4.95532053483250    4.70452395093107    9.93729114398802
H         3.62994626908718    5.06592025468841   11.05499880892068
H         4.69811347707022    6.35334550924574   10.50686041289254
C         3.25561820791930    5.26255700025470    5.27546495122593
H         3.57738252454246    6.13493299069964    4.70004520288839
H         2.42898575179561    4.79961834730948    4.73765034441139
H         4.08644306452876    4.56376307401553    5.30563016352479

