69
CSD_code = MOGKAV | q = 1 | S = 0 | Stoichiometry = C23H42O2ScSi(1+) | MND = 10
Sc       12.88812623441526    2.96734933974241   20.30460787309273
Si       10.12224656736125    5.39929602660695   21.32692503745778
O        14.20158595588570    1.52846744199289   19.39689275589055
O        14.26294383745454    2.92360549120451   21.95822077390316
C        13.60767142959024    4.80798060349156   19.39563595782614
H        14.69418344329185    4.94463865687221   19.49315327957307
H        13.07739790167892    5.69026476084018   19.76911903314472
C        13.23542149084510    4.48862393792655   18.02256557986968
H        12.22022796940736    4.74125542406104   17.72185148869631
C        14.05618932396518    3.97284950656792   17.09303310509810
H        15.10067952726754    3.79479902023798   17.29885828999395
H        13.72418272408693    3.76677760295761   16.09069859440720
C        10.77233347668633    3.65936949196827   20.92483434488959
C        11.17156694242529    2.69989024269272   21.92391795120211
C        11.26940417094837    1.42131990469156   21.31802245072096
C        10.89277353119075    1.55758553385696   19.94442416337337
C        10.58449676138103    2.91906807239949   19.70328014142129
C        11.22738630600844    2.98179605454499   23.40016081529317
H        11.36081373247567    2.06462344712327   23.97020384550765
H        10.28582369608880    3.42700814388168   23.71752751965271
H        12.02171848171993    3.67977580384317   23.66518080653122
C        11.44567102432217    0.09055327002229   22.00058107892978
H        11.77181288945820    0.20183680043259   23.03195121544002
H        12.16806533814300   -0.54274235213766   21.48141832570303
H        10.49187368143996   -0.44045538730452   22.01160051432795
C        10.49745962231499    0.42838115141322   19.03472719855335
H         9.41088744107659    0.31949406231823   19.05942299876786
H        10.92596276262790   -0.51951084330309   19.35337457481420
H        10.77886800542197    0.61518792827280   17.99883250555757
C         9.87545414276184    3.38697629368926   18.46770205362347
H        10.28972696634937    2.92934560771479   17.56953461257224
H         9.91233821330561    4.46501510816727   18.36605330319098
H         8.82549432730687    3.09298179958975   18.52695824386071
C         8.39186835388309    5.23817608119774   22.11219059998854
H         8.39740771310534    4.64470746823293   23.02065697698605
H         7.69272491323856    4.77160971149676   21.42496905744128
H         7.99820098699024    6.21741239256010   22.36518656774740
C        11.35426682805781    6.24065741476252   22.53297381166814
H        11.26640436632801    7.32006476678740   22.46944299345956
H        12.38761390227173    5.98374751321976   22.30238773493260
H        11.16287376468689    5.96938039934024   23.56506899675553
C         9.98062583279191    6.57002037385263   19.82305685757549
H         9.88216877072530    7.59158850646289   20.17713460813074
H         9.09722246548503    6.35942724795777   19.22980134431398
H        10.84480783123422    6.54158242616967   19.16594215034548
C        15.64153133238861    1.65091986439771   19.41940403955905
H        15.90316036456134    2.71051687499049   19.48781104839189
H        16.02345749938102    1.12235009764161   20.30244937197781
C        16.15788274477755    0.98772794059067   18.14814815138415
H        17.17119639985616    0.61336171925083   18.26489827423982
H        16.13132053850874    1.68301297559855   17.30980790988461
C        15.12943226692964   -0.11975677054701   17.94782049473082
H        15.08416732897201   -0.47839700960918   16.92366457920816
H        15.34159887263401   -0.96261625328442   18.60661459610734
C        13.84226028033729    0.58122835764565   18.36567947557010
H        13.40863626275760    1.13607541759726   17.52376174197796
H        13.10116440116301   -0.10899292976153   18.77330477552069
C        15.05751808142950    4.00959173972923   22.48910784010306
H        14.40441973981960    4.86384978711123   22.69038763818171
H        15.79526595863066    4.29608649714937   21.73048279586326
C        15.74616145122056    3.48468388026914   23.74740110640522
H        15.13234361436384    3.66967811952636   24.62860124475720
H        16.71984639999936    3.94175332065569   23.89874726000735
C        15.82518367344220    1.98722132743234   23.46439548240476
H        16.65337708927800    1.76828968701850   22.78916759298899
H        15.93631143000651    1.38997406096694   24.36488865035674
C        14.48508479484600    1.75868364527689   22.77961020981399
H        14.45572473198933    0.87247460185995   22.13929497676122
H        13.68948109522377    1.69250080009641   23.53056861154607

