50
CSD_code = MOGNIH | q = 0 | S = 0 | Stoichiometry = C22H17O9PW | MND = 6
W         8.14380659575600    6.59109298501182   14.14294770412545
P         7.23042486193854    5.54847812773066   12.12071959561537
O         9.33840093893465    8.83233089683424   12.30048120583334
O        10.79788421966622    4.96205142067279   13.73099849985249
O         9.30211258041833    8.00096307416894   16.68408711069121
O         7.01831529837814    4.29530628659923   15.96967585420794
O         5.51041014161502    8.27375338947797   14.42771639662888
O         6.53015362937288    6.52702573571190   11.05400094580723
H         6.56178425693341    7.45462132136634   11.30323964506608
O         6.12977745662676    3.26848970807866   13.03255721599306
O         3.79600721580845    5.16112055586443    9.11680749412774
O         5.37941270984565    4.06921215318330   10.27522588548177
C         8.90286317457868    8.02438412945802   12.98138896648785
C         9.83429989300238    5.54474344955177   13.89992072252843
C         8.88192946709495    7.47620939911584   15.76198796384328
C         7.41547489241063    5.12027428220101   15.29265132729906
C         6.45939160968723    7.64183293099280   14.33493220884589
C         8.30626834329847    4.53025025885365   11.08659546316430
C         8.81917893293261    3.35519795787008   11.62799942954651
H         8.52194609092508    3.04995801046142   12.62156915103066
C         9.69011078281003    2.58240432772870   10.88316017036330
H        10.08282251769803    1.66537588389708   11.29643224988796
C        10.06849248959709    2.98904134575691    9.61267336534686
H        10.75608560077837    2.38771718846977    9.03676710481399
C         9.57378928706072    4.16987581401506    9.08374167553178
H         9.87729619302898    4.49016549812485    8.09781931136293
C         8.69448166999182    4.94520547720949    9.81848401989991
H         8.30688527232054    5.86799592294210    9.41137694357807
C         5.86554388619547    4.35973938541199   12.60576818951995
C         4.56129141597345    5.04903951001953   12.65365799094278
C         3.87017119404188    5.38386405229940   11.48721767023204
C         2.71363634773193    6.15149414462292   11.57536235049746
H         2.19510155238977    6.38943754135832   10.65825531965561
C         2.23807308463631    6.60457797684500   12.79455837410705
C         2.92375311497063    6.25527289857585   13.96664232820917
C         4.07231029563840    5.48027049493700   13.87949956380170
H         4.60131478825269    5.20591965003493   14.78144069629423
C         4.31786475235215    4.89270923500749   10.16934045245243
C         5.82969424883109    3.47982382731400    9.06464730105253
H         4.99597830882599    2.98537355056436    8.56172852656943
H         6.59629181915265    2.76018003553765    9.33986871761829
H         6.24134386245104    4.24306057195848    8.40170725594721
C         1.00556296000687    7.44975213089683   12.85756405895950
H         1.21998331822779    8.40192544822312   13.34086351165913
H         0.22988154941547    6.95218024946870   13.43859379971884
H         0.62118586732647    7.64280652233315   11.86009971456612
C         2.43981301343163    6.72029846764938   15.30153015395279
H         2.48072167770016    7.80771560492346   15.35719727292523
H         3.05329614556153    6.31088577356673   16.09934920802792
H         1.40598067423442    6.41909539693719   15.46334991621647

