41
CSD_code = MOGNAZ | q = 0 | S = 0 | Stoichiometry = C17H12Br2ClO7PW | MND = 6
W         3.53585477854361    7.89291817748725    6.98036296007701
Br        0.63694955657250    5.57401497937747    5.68310719677426
Br        0.72025644059778   10.33444119722132    4.90715728045208
Cl        3.93570252104276    6.04920383915340    3.88137581622093
P         1.71931111471290    7.47632456784958    5.44034837983129
O         1.69545465997701    6.83768345879442    9.30110307466090
O         2.71093512451071   10.85118943027211    7.62450341397450
O         5.83276655148224    8.40126404685858    9.04345834109595
O         5.36237232104506    8.98283360473605    4.66703558727077
O         4.51718918927560    4.91365225243707    6.84077436967848
O         0.33187593753364    8.81451095499903    7.18942858487725
O        -1.01278156763740    8.62574804176255    8.99011242331520
C         2.35354098248319    7.23980901794182    8.46471010561838
C         2.97059319916479    9.78564492521205    7.32318604856075
C         5.00059263658837    8.21869188138611    8.28570638070464
C         4.70808974658522    8.56339767012714    5.50188015332435
C         4.15515911860483    5.99377064877044    6.82361335708331
C         1.73813290742583    7.55460835642229    3.57993117689798
H         0.72180553320970    7.64586542995761    3.18425341774340
H         2.30004072526401    8.45882044150768    3.32363528142099
C         2.42082692693682    6.34072936499890    2.98197701228426
H         2.67932886559147    6.50046642482110    1.93553150010169
H         1.81377525743393    5.43913701567951    3.07937679542769
C         0.25458525840386    8.61826754034664    5.80921454250074
C        -1.14856029895664    8.21608331109082    5.52581003472261
C        -1.80924161770477    8.13317884694731    6.75180900588489
C        -3.13355320042854    7.74262110293476    6.82656364979819
H        -3.61830296751708    7.68009943069929    7.78800320697554
C        -3.81047181641674    7.43684407857575    5.65431096638041
C        -3.15634233022452    7.55330348873434    4.41572702474448
C        -1.82379951593034    7.94992656911951    4.35295117032467
H        -1.34838690651634    8.06390779121538    3.39025711685949
C        -0.87775501555398    8.53201319538595    7.81081025676580
C        -5.23761201578006    6.99787399907609    5.71290574981257
H        -5.57988645773675    6.94235640731123    6.74203414821461
H        -5.35333027032346    6.01749294895278    5.25343020756388
H        -5.87624225128683    7.69469974889660    5.17132290299847
C        -3.88936855522179    7.24879035665863    3.15074355164536
H        -4.19773339106809    6.20409008321099    3.13750443451611
H        -3.26473959196286    7.43675533806926    2.28206507090109
H        -4.78823158268784    7.85827003506753    3.07236830195894

