40
CSD_code = MOGRUW | q = 1 | S = 0 | Stoichiometry = C14H18ClN4O2Ru(1+) | MND = 6
Ru        1.18522130690953    6.93405669103707    7.04493288409241
Cl        2.56308719260129    7.88905208709028    5.40669469354094
O        -0.66881161761841    8.93092699903515    6.29286158826506
O         2.59503237589103    5.63151506836198    7.30138107267977
N         0.02845882054891    8.10250514000094    6.69271994682248
N         0.22958364604295    5.81608240266944    8.55973632738921
N         0.33770599532708    5.56190637712819    5.79193049523355
N         2.04330227467396    7.91068389556509    8.61323969030967
C        -1.12473204636431    6.24319498594862    8.95635275001638
C        -1.19247254308753    7.62445694934727    9.59401354135817
C         0.15378748472144    4.46867723644756    7.96016597712644
C         1.16954241618398    5.90094197328717    9.69316643109202
C        -0.14445954277785    4.51666233986771    6.47911091653885
C        -0.80446324651120    3.48243986274755    5.83020659142431
C        -0.95048863580799    3.52991677621002    4.45142412114523
C        -0.43053292970655    4.61193089557871    3.75785493053861
C         0.20435890359424    5.61528231171124    4.47053711469650
C         1.86818940135952    7.24111576194147    9.76150257231265
C         2.38879894900059    7.72683361624435   10.95335562361946
C         3.10505395120383    8.91428600730044   10.94954078101950
C         3.28206925923653    9.58684924270565    9.75002337592864
C         2.72922782905870    9.04985728199689    8.59996856041592
H        -1.53048733483636    5.51168951488720    9.66959986158000
H        -1.75301120460860    6.22354974907912    8.05935622817436
H        -0.72577408100907    8.38652384580964    8.97151880355321
H        -0.72317246437219    7.64309089920816   10.57375963991979
H        -2.23724364335825    7.89537920472334    9.72219951896632
H        -0.57746168446832    3.84012611760363    8.48252333025686
H         1.14171357994589    3.99812003348811    8.04543085062937
H         0.67069050865915    5.67071332432868   10.64144178854506
H         1.96630961245329    5.16291195653774    9.53635457340169
H        -1.18910519902269    2.64892468442885    6.39636556855275
H        -1.45649307853723    2.73227021677059    3.93064610106569
H        -0.51217466450428    4.68179830916090    2.68580530122569
H         0.63277065559305    6.48191891266952    3.97994321521970
H         2.24242697442156    7.17587649169506   11.86915175638402
H         3.52057752696241    9.30198293308436   11.86632654050875
H         3.83940140946695   10.50755454470998    9.70087355213037
H         2.84400718668290    9.52887671863691    7.63410377243478
H         3.35916665605172    5.71511864095551    6.72027961188468

