82
CSD_code = MOGWIP | q = 0 | S = 0 | Stoichiometry = C33H45O3Y | MND = 6
Y        14.28168043769289   15.06787922378821    4.77154392354441
O        14.46258387307195   16.34598297235543    2.36229196251598
O        11.92121043716460   14.63084643660419    3.47113533259789
O        14.85961519499586   13.13992377964873    2.90694083429272
C        13.41273964770075   17.06529302463935    5.80738662966030
C        13.58706621771872   18.23279361413019    4.95003632331834
C        12.53120081138760   18.76005347714335    4.18790146171443
H        11.55092550526872   18.30491188551782    4.26771199357914
C        12.70805613545275   19.85434345922658    3.36572009264585
H        11.87144937290437   20.23665979771124    2.79454211359596
C        13.94387168342258   20.47736743513338    3.27739856495197
H        14.08079430000249   21.33746099323378    2.63780309030655
C        14.99640817696638   19.99302147934407    4.04238703528637
H        15.95963618033295   20.48466728020926    3.99925948212182
C        14.82323357221830   18.89843831197806    4.86261764145029
H        15.65185049035456   18.53798720329509    5.46106218897961
C        16.64419112177530   15.34162926541512    5.19378171455872
C        17.41924199862837   14.20930083587211    4.69716424587919
C        18.15925517924351   14.27506166640428    3.50501342862584
H        18.18909418539981   15.20961621608794    2.95619356555866
C        18.87085950186375   13.19079402243629    3.03232794753517
H        19.43211102829981   13.27826600502656    2.11059034008154
C        18.88305952761551   11.99581081108425    3.73484571288924
H        19.44490694164528   11.14883243014034    3.36794706722463
C        18.18667075071427   11.91450439782548    4.93373374572293
H        18.20913350560827   10.99498259888336    5.50375779149062
C        17.47542110705711   12.99576270687420    5.40717485865399
H        16.94846734276595   12.92128025650260    6.35137537655681
C        13.69840055323616   13.40973695844161    6.42196419275363
C        12.29162842197155   13.03103361922116    6.34147796357746
C        11.28589183176883   13.81982338168696    6.92867594383763
H        11.57437208083314   14.71804662402842    7.46242470933662
C         9.95516517543498   13.46946107549858    6.84734295932766
H         9.20507826570108   14.09648137324109    7.31124478143578
C         9.56757919352935   12.31363913546341    6.18237901214573
H         8.52459703660050   12.03647181430988    6.12637726295039
C        10.54243033182139   11.50603194078252    5.61628346885071
H        10.25637681072979   10.58939000046300    5.11604008220156
C        11.87530073758566   11.85410752877927    5.69724170681379
H        12.62596932717738   11.19753822291574    5.27339461824022
C        15.65237408905399   17.03981423135095    1.96967287003046
H        16.48842392032308   16.34514611933627    2.06467323090003
H        15.80539905178209   17.89814067825764    2.63661367320576
C        15.40841821490478   17.51135599701157    0.54181338519905
H        16.03906570556501   18.35439420848562    0.27224161404793
H        15.57738968413154   16.69770017656241   -0.16598817297309
C        13.92723541560814   17.87079720420979    0.60806271635500
H        13.43820421426687   17.85991034502702   -0.36343092941016
H        13.80373215618927   18.85453028605129    1.06167348592701
C        13.37543212143741   16.79713269998760    1.54583783002472
H        12.58592738596104   17.18779416005954    2.19261906332088
H        12.98987300090465   15.93486146189025    0.98604489132373
C        11.63652105921301   13.49997271501766    2.64449919840790
H        11.64344561952543   12.59442145070423    3.26499382138445
H        12.41939349392253   13.42947646010069    1.88677911116292
C        10.24549333588670   13.73450233525414    2.06829446777904
H         9.76163067515868   12.80881121453499    1.76685742192370
H        10.29199533204321   14.40995726213108    1.21202639283117
C         9.55819341738744   14.41296570164921    3.24900244533013
H         9.25221744850431   13.66732531313571    3.98345164323734
H         8.69480618973540   15.00741569924454    2.95982959065030
C        10.68472331012448   15.27192127741646    3.81907814765475
H        10.68351153622155   16.27292777348692    3.36947889050628
H        10.62687962987609   15.36112425143141    4.90713359030970
C        14.98005684222555   11.75125056285007    3.25083902017309
H        13.96759298099437   11.33874964212657    3.34013298325290
H        15.49500853316930   11.66789976374555    4.21150561830301
C        15.75545910691536   11.07394934146056    2.12222526798135
H        15.44407218476341   10.04310673353388    1.97116530279010
H        16.82369346980191   11.09893815069614    2.33953256482710
C        15.44145102504864   11.97859556635815    0.93485491871292
H        16.18259431045834   11.91618944152726    0.14205472607181
H        14.45739268745384   11.74474786933114    0.52412018876292
C        15.43238351938911   13.34325329886681    1.61295248033702
H        16.45852211234932   13.71492980579237    1.73025765634926
H        14.83195482850132   14.09042549816788    1.09026540229264
H        13.99409903933533   17.18005599885114    6.73216291716411
H        12.35637936013558   16.92970448527334    6.06494938228121
H        16.72116906966872   15.40389770284584    6.28782969255026
H        17.00438650503973   16.28016989539288    4.75756896776556
H        13.91060094408382   13.88362111055352    7.38994387073063
H        14.33977347923642   12.52878284888835    6.30868949374490

