45
CSD_code = MOGWUC | q = 0 | S = 0 | Stoichiometry = C12H18B10N2PtS2 | MND = 4
C         5.32008661833801    9.80881621942759    3.61445579799589
C         5.51020546493907   10.86095185359422    2.46052827522831
C         5.53066871504168    5.41678124890330   -0.43453816210653
C         5.43871397388834    4.03663014219941   -0.64080575531898
H         5.50824339753441    3.63397299582647   -1.63771167458726
C         5.25869954509254    3.19155468157894    0.43211281724523
H         5.18574331541709    2.12537442486987    0.28564546191832
C         5.17321252027045    3.74320106103679    1.70942522547207
H         5.03471306539833    3.12012674702504    2.57736667839905
C         5.26846587300005    5.10990482675895    1.84984746019470
H         5.20489198765746    5.57075272751955    2.82680103271599
C         5.71148567558577    6.38568757988152   -1.49927214097640
C         5.92076646126307    8.63537565251677   -2.02523886226058
H         5.95677391097536    9.65369124983068   -1.66108318848551
C         6.03431718292348    8.36501589017953   -3.37087503556896
H         6.16138639623203    9.17112227860994   -4.07429096746405
C         5.98158243198455    7.03864129511299   -3.79639002701123
H         6.06599255547418    6.79128384972292   -4.84286564926953
C         5.81957072711990    6.04876797493965   -2.85216037069558
H         5.77671173229193    5.01612888549209   -3.15635025850817
B         6.79875437157045   10.70639782466096    3.60439830166422
H         7.74224216331405   10.11919707282051    3.22430745804321
B         5.95215816782711   10.36741997645491    5.10301137903526
H         6.40412309437762    9.56296760550016    5.83035056777067
B         4.20271908083324   10.34908627852504    4.79686213461137
H         3.54814748897505    9.53067611630694    5.32823405354341
B         3.91453628462196   10.67234158677182    3.09795485219765
H         3.17416792557443   10.06124377279115    2.41870975106273
B         6.29723030619520   12.27813230968143    3.00851690359303
H         6.99503263318808   12.83486674032339    2.24468246690672
B         6.56710205968573   12.00700894912049    4.75303797953979
H         7.48735761811206   12.46585321485942    5.32325948121813
B         4.96278320329143   11.78638102384785    5.50904408292079
H         4.76398666443550   12.09244612312418    6.62731082675971
B         3.70739906545831   11.97439958740203    4.25197985316421
H         2.63635746873604   12.40756922639904    4.47070111305907
B         4.54778052393365   12.25873562889657    2.70361703551564
H         4.13885740452381   12.80065737254805    1.74472876006629
B         5.17932272134629   12.98512059200873    4.19524723814687
H         5.13506122395245   14.14667142832812    4.37601098898911
N         5.44204360222010    5.93672805329009    0.81609869361707
N         5.76353228234538    7.68290118379331   -1.10300349128279
Pt        5.59853989415721    7.96357582476693    0.90643411685738
S         5.41081989852251    8.05717267781025    3.17456497204988
S         5.80391330237462   10.22986824494239    0.79103982403349

