69
CSD_code = MOHDUK | q = 0 | S = 0 | Stoichiometry = C33H28AsN3O2PdS | MND = 4
C        -0.90390424798413    7.14517555926985   10.68521405511205
C        -0.88948077116618    8.56746719076836   10.50383785773549
C         0.24031959481959    9.30339624747127   10.75021925429356
H         0.24563738521782   10.37361011460955   10.61428919729586
C         1.41127320354717    8.66981679640530   11.18575496650183
H         2.29498000136946    9.26309276068632   11.36311151854756
C         1.42682614407366    7.32104150816792   11.39469141670520
H         2.32502361421097    6.83725314672433   11.74967978333780
C         0.27816773492691    6.52828639316267   11.17870934118711
C         0.36754630130265    5.14382760374886   11.50345861361851
H         1.35598286245931    4.77973465296044   11.78525110703501
C        -2.22140599197171   10.46399411152857    9.96227196576797
H        -1.55063823599704   10.86745219269702    9.19543963726765
H        -2.02629295457347   10.96808325402520   10.91502378659881
H        -3.25465158962522   10.64106185937044    9.66607432182996
C        -1.20690934485731    2.17025656899458   12.11752209660754
C         0.15546472506303    0.25531054532708   12.94462072052791
C         1.40658944888129    0.86645786481141   12.92845073299453
H         1.48281737373684    1.88821825793514   12.59798942772293
C         2.52302828834074    0.15868972242133   13.33229984544492
H         3.48931261579426    0.64117681584444   13.31638624346108
C         2.41523404116440   -1.15579268965528   13.75447153693094
H         3.29215343838069   -1.70134289737956   14.06847192218196
C         1.17182059936793   -1.76640809165171   13.77034124100009
H         1.07518602232370   -2.79145031264458   14.09693264736972
C         0.04925359765456   -1.06987162266266   13.36954148879551
H        -0.92013820627042   -1.54894954121444   13.38305398587285
C        -4.37875547655209    7.05298228869033   11.96639487033395
C        -3.56531094922392    6.80183561578330   13.07020930216373
H        -3.16616470647905    5.78507157648601   13.22968938288354
C        -3.24622617331554    7.81832211654755   13.95161662627300
H        -2.60335588766428    7.62158502788189   14.79765844986673
C        -3.74220165022460    9.09533309666675   13.73931718159253
H        -3.48261267941579    9.89346196268448   14.41957771298075
C        -4.56338276770702    9.34868116571203   12.65433399861141
H        -4.94922359320546   10.34512067325370   12.49053528538976
C        -4.88120482680485    8.33152517511249   11.76950403188852
H        -5.50641307911596    8.53286531333608   10.90556444234728
C        -5.31235223667935    6.42650229169252    9.12802717418505
C        -6.50180548212924    6.01366411824628    8.53425972127846
H        -7.08084814111885    5.21656470881107    8.99094409058168
C        -6.94370109309602    6.61783851068873    7.36900615866534
H        -7.87020965096581    6.29709186990532    6.91472304076560
C        -6.19874464166214    7.62877575307576    6.78502658067800
H        -6.54637598954524    8.09925651993938    5.87682586469628
C        -5.00412096884464    8.02955891307541    7.36210629131079
H        -4.41736421456486    8.81081450919375    6.90032093491716
C        -4.55600125458176    7.42812947223504    8.52506863740843
H        -3.61848851977329    7.72518841266568    8.97938924671038
C        -6.26157908564067    4.76436164221994   11.45378281483606
C        -6.39726408575039    3.38115856268370   11.43884058454641
H        -5.58486192741938    2.77599343822563   11.04638207303919
C        -7.54725637511895    2.78664066395108   11.93036722268508
H        -7.64746467890504    1.71115870570297   11.91731234567271
C        -8.56616888182465    3.57245362089224   12.44197622588426
H        -9.46273880059174    3.11025865168706   12.82831188427678
C        -8.43588891877284    4.95234711041671   12.46322337235631
H        -9.23087704764151    5.56329618132896   12.86628697270811
C        -7.28833237788081    5.54734835082605   11.97039168227587
H        -7.17843601397294    6.62731620483846   11.98411656561975
N        -0.59327325780478    4.26864133333067   11.56312548443900
N        -0.24834999860071    3.02741208723919   11.97497741652977
N        -1.00867512968356    0.90176644087060   12.55411791456731
H        -1.85671492857040    0.35270254517085   12.61232632828633
O        -1.98902012473072    6.52434844416814   10.37370208796540
O        -2.09325145994164    9.07316940390600   10.08203050956864
S        -2.88396166638909    2.53702927826816   11.77883523530676
As       -4.62473465088748    5.56635422148396   10.73600363912640
Pd       -2.47178225743036    4.66278600925171   11.07358190304073

