67
CSD_code = MOHFEW | q = 0 | S = 0 | Stoichiometry = C29H29AsClN3O2PdS | MND = 4
C         1.98791605212182   -1.96957593900201    6.22714113692887
C         2.07801120072225   -2.69346710202181    7.44233133493843
C         3.21271209809835   -2.61487188903501    8.22321968906821
H         3.28618397884539   -3.16325144230321    9.14843080599571
C         4.28366041712739   -1.82463710199958    7.81303532482047
H         5.17008516893136   -1.77362735300206    8.42617286782521
C         4.21454140795942   -1.12562560081684    6.63795434577747
H         5.05000832582387   -0.51820917204035    6.32440591611070
C         3.06415751003378   -1.16082475997730    5.82124767585569
C         3.17489763150615   -0.36468432037540    4.61272776984491
H         4.20078195808565   -0.08595008664237    4.38126826836137
C         0.98429337799769   -4.20902016522343    8.90790262063046
H         1.79036163659873   -4.95080826898508    8.89702673044457
H         0.02424249443571   -4.72267109029202    8.93074550411385
H         1.08011855675882   -3.58388041822354    9.80279473937328
C         0.14985421516644    0.43366066333466    3.11417483768947
C        -1.75780386937359   -0.49091216141563    4.37447854133360
H        -1.28682931044664   -0.17058885928093    5.30826866978687
H        -1.55216885360523   -1.56073620562863    4.24845341257088
C        -3.25650429503277   -0.24676838598276    4.42179370046858
H        -3.46856242562039    0.81055907403463    4.56158538353395
H        -3.69182112651470   -0.79961011441011    5.24897841310402
H        -3.72783362479737   -0.57984638071860    3.49993724342363
C         2.27376257438061    3.63154132032400   -0.65185092919511
C         1.92215359273837    4.96461232315810   -0.48915286525272
H         2.39619802800554    5.55346942138582    0.29024404507170
C         0.97224954316026    5.53708056368193   -1.31934468906910
H         0.70275546979709    6.57589263123759   -1.19228283101917
C         0.36705758860384    4.78132319158056   -2.30871553646119
H        -0.37486640657399    5.23033175316902   -2.95261061695700
C         0.70589118616933    3.44654734657202   -2.46919692467184
H         0.22616361737428    2.85494848484691   -3.23546750947568
C         1.65258664844808    2.87465463993590   -1.64071742314055
H         1.92196288810380    1.82446477343349   -1.74181556034548
C         4.27111804032723    4.16273007109229    1.55196075696117
C         5.33953771505667    4.97234591577722    1.19410217771137
H         5.84261830883889    4.80976431914358    0.24707707496442
C         5.77460445975821    5.96357263155722    2.05939926858124
H         6.61179332574691    6.58821809995683    1.78336138264191
C         5.14655470180791    6.14854280551833    3.27929439765639
H         5.49244327543107    6.91885114923869    3.95272021216039
C         4.08345415351121    5.33760203524023    3.64630907850816
H         3.60340400043442    5.47451841801490    4.60449010457220
C         3.64949158976142    4.34640448499036    2.78597609191305
H         2.81863157349930    3.68016477671668    3.07428332137192
C         4.88439785102519    2.22817256473303   -0.84259139519769
C         5.42840044070962    0.94968810829729   -0.83097135203329
H         5.12177637915098    0.25209842749464   -0.05442147157311
C         6.35548472406836    0.58047634277116   -1.79103158810636
H         6.78109085451656   -0.41218131711491   -1.77739186998174
C         6.73480158041845    1.48423692718690   -2.76922227358519
H         7.46067904076697    1.19825811858355   -3.51623511009984
C         6.17810783264813    2.75339495506493   -2.79922754794124
H         6.46658171878378    3.45223660786851   -3.57130869669106
C         5.24908574512057    3.12436852338589   -1.84351169730462
H         4.78814487744043    4.10784407957927   -1.87280213969716
N         2.31293887314553    0.12506413701757    3.78073381669142
N         0.98423380884454   -0.09213572995387    3.96866006964045
N        -1.16759770715404    0.25791710923816    3.28567846903907
H        -1.77559703671691    0.63303392664890    2.57532639412890
O         0.86990961538971   -2.15910450854397    5.51858469422503
H         0.80206278864307   -1.44254795256712    4.82470089185790
O         0.97333536347682   -3.43789125953954    7.73543304760703
S         0.61190569210669    1.37998443029967    1.73180873779449
As        3.55620935742814    2.70495235305054    0.49236442363224
Pd        2.86492492286971    1.26227322032517    2.17394963746109
Cl        5.13015487812454    1.22942685961709    2.55183700159848

