109
CSD_code = MOHGAR | q = 0 | S = 0 | Stoichiometry = C38H67BrP2Pd | MND = 4
Pd        2.60001985933655   -0.68010677922886   19.09887217643155
Br        2.55704501681698    1.12299961890899   20.78265650190506
P         0.26074232397097   -0.86746275073377   19.19648059061138
P         4.93883264753955   -0.53384745126488   18.96155394188698
C         2.63640990047334   -2.11511996706747   17.75918145766001
C         2.49176991562320   -1.82466536657555   16.40944874769462
C         2.50936271983205   -2.84118098422979   15.46447355787537
C         2.68477801431373   -4.15658912106663   15.86269888194864
C         2.83715970012343   -4.45278749523694   17.20755575873406
C         2.80680549515345   -3.43567442319091   18.15159047266868
C         5.45529009795671    1.10928414403590   18.12123412595007
C         5.45002452415408    2.27938800474727   19.11030944894702
C         6.83264586642108    1.10910927104606   17.45181157484834
C         4.36724772195416    1.36043267825427   17.06991217992420
C         5.59190892691987   -0.41530309416184   20.70587450308348
C         4.88978084111627   -1.43141691051086   21.61307931839713
C         5.17832529905202   -1.09227932865915   23.07156400526767
C         6.68397934937949   -1.10552754583534   23.32185469150647
C         7.39429311800187   -0.12687044223099   22.39060515610850
C         7.10169714519838   -0.45752887223124   20.92626206290972
C         6.09588640639457   -1.77722883911451   18.15329855755951
C         6.13898855913796   -3.13873568665502   18.84853695306932
C         7.23566989829791   -4.00977565764004   18.23659633645084
C         7.00528840487874   -4.21263392481066   16.74384519589362
C         6.91427773171329   -2.86156136967438   16.04474291321116
C         5.80005310620507   -2.02919965564912   16.67355956436159
C        -0.27939094381983   -1.60559764549707   20.88057615561161
C        -0.33256991397265   -0.53854479571182   21.97875338137979
C        -1.63872693550371   -2.31079405933725   20.89094699799307
C         0.82782710189058   -2.60676562002185   21.23242360786595
C        -0.43724252565605    0.86326042127896   19.17726119026835
C         0.27084911107118    1.71754817036732   18.12028418274627
C        -0.06196112483043    3.18755869676127   18.35196725571600
C        -1.57223876434497    3.39724584680524   18.28203465327817
C        -2.28718849506346    2.51584430091152   19.30260670258808
C        -1.95015625698018    1.04065095393355   19.08011705967902
C        -0.84104180995601   -1.78925680345603   17.98248672797529
C        -0.86098410525025   -1.18966384681168   16.57571468547755
C        -1.91444881722455   -1.88918061405967   15.71739146779677
C        -1.64103132239341   -3.38560055351054   15.62524038730961
C        -1.57498534290891   -3.98763570398463   17.02364871426508
C        -0.50191258341384   -3.27443631724204   17.84186721606447
H         2.37240998299619   -0.79490615100580   16.08147564664547
H         2.39067968731635   -2.60567030384368   14.41520656425464
H         2.70266349505313   -4.94829989344887   15.12728277154750
H         2.97471732140007   -5.47860030526374   17.52265297578966
H         2.90906919745814   -3.68401327728349   19.20527294946124
H         4.51099271882748    2.36007578901922   19.64849528561243
H         6.26224614802596    2.19832634692339   19.82845187167761
H         5.58985197186512    3.20838502273965   18.55798104768383
H         6.91609514892460    0.39296375838498   16.64126534787998
H         7.62541375300726    0.91690834671812   18.17128214117659
H         7.00761750799112    2.09924326866753   17.03068023148359
H         4.40406363051261    0.61542995404660   16.27595288872879
H         3.37545989718318    1.31607747348447   17.54204996267472
H         4.48383850909293    2.34613646492612   16.62068849095786
H         5.24297139503343    0.57138619370542   21.03597518398944
H         5.22495380594920   -2.45003285721135   21.41134597483964
H         3.80577261511008   -1.39758048955270   21.42951912355854
H         4.68563485032607   -1.81380021252393   23.72690247173708
H         4.77513938578677   -0.10289313263396   23.29671821450057
H         6.89070458278382   -0.84158995536122   24.36077765443710
H         7.07126087643846   -2.11378930247644   23.15088275000331
H         8.47204453290285   -0.16103145401402   22.56707387042515
H         7.05052769943895    0.88722195781125   22.60686074382652
H         7.50721816938954   -1.44439699661009   20.69833592830120
H         7.60602058636895    0.26868666431049   20.28590514191816
H         7.08977058091618   -1.32205576507305   18.24544763213603
H         6.34247359427295   -3.03196216383885   19.91229208545018
H         5.17585420595210   -3.63681028768714   18.73330763271533
H         7.25862943120431   -4.97641859563906   18.74508947693887
H         8.20643393350266   -3.53005903347822   18.39044741816468
H         7.81567699824233   -4.80712883622839   16.31673822762745
H         6.07047277186446   -4.75729803550258   16.59194144215753
H         7.86894504664380   -2.33588856403739   16.13436952094678
H         6.70898764829718   -3.00423514890662   14.98151471745122
H         4.86785686773012   -2.58231063152259   16.58299855805633
H         5.68272790674626   -1.09878120938465   16.11846061584269
H         0.59024149914089    0.02834649992521   22.04797264611175
H        -0.48605517801027   -1.02927378228996   22.93960692162588
H        -1.15926703974611    0.15075574722005   21.82568879199218
H        -1.68126487394140   -3.17133220030987   20.23181423802004
H        -1.83082009955471   -2.66643006834808   21.90334506188940
H        -2.44380715033526   -1.62846251899377   20.62765089073510
H         0.83412298658058   -3.44918814805805   20.54168475606881
H         0.69365897817266   -2.99249704789777   22.24247396678485
H         1.80762208950941   -2.11069749900137   21.18432778823563
H        -0.12449110543247    1.26866580336369   20.14786094719693
H         1.35759370034619    1.56477903566864   18.19485508074089
H        -0.03106225248701    1.43898705143290   17.10939137659669
H         0.30776812084508    3.48891237289323   19.33412847845188
H         0.43492635315820    3.80552180465190   17.60096003654950
H        -1.81127819092369    4.44586302455422   18.46914368075343
H        -1.92675146892189    3.14877167776112   17.27784713747019
H        -1.97751733096653    2.80870930572558   20.30842358978586
H        -3.36748698540341    2.66158337572772   19.22796140439443
H        -2.45918622345016    0.43766560107615   19.83450269714277
H        -2.32204068268242    0.73637476844982   18.10060207580462
H        -1.84948066576449   -1.69216338648776   18.40324816591567
H        -1.09490639385060   -0.12715238584899   16.60356368424490
H         0.11957283932918   -1.31155157968560   16.11461315728193
H        -2.90321684025317   -1.72897511635044   16.15653287003928
H        -1.91977677059259   -1.44880923416514   14.71761628927815
H        -2.42166514792333   -3.87396645021625   15.03814917564384
H        -0.68617447882731   -3.54941590349583   15.12024004071997
H        -2.54711385485637   -3.88646709140941   17.51404652117281
H        -1.34038801062769   -5.05253797230718   16.96135156762396
H        -0.39913081435902   -3.76136917725118   18.81136312513953
H         0.44839867565293   -3.37798562617331   17.32297221510111

