49
CSD_code = MOHGIB | q = 0 | S = 0 | Stoichiometry = C22H20ClN2O2PPd | MND = 4
Pd       13.91982629884505    1.69828293584929    9.58007186902262
Cl       12.83774816119353   -0.18810020185050   10.07423457393315
P        12.00218319716149    2.73466773485477    9.80673422605775
O        15.78082639294507    0.80803541521910    9.21075673697379
O        17.85955042122952    1.50029059130792    8.73431532020201
N        14.96795897855759    3.30458555326288    9.15161910913445
N        16.25846219957759    3.04053856612598    8.90699828098937
C        13.34018519346072    5.17442535705378    9.26954027636712
C        12.12635580123193    4.53602967076376    9.59521585225165
C        10.96009900123522    5.28338440298153    9.73342379693096
H        10.04259872115093    4.77167679623136    9.98787617366988
C        10.95785197104997    6.65356505831349    9.56508277360099
H        10.04322674879496    7.21501897522567    9.67844703796650
C        12.14683757800291    7.29769276987469    9.25058119075225
H        12.16334122357100    8.36910139196094    9.11855050545118
C        13.30771601413894    6.57135497127933    9.10734494529696
H        14.22666630996133    7.08361968855015    8.86232909218539
C        14.62847182852765    4.55574613966795    9.08331826564483
H        15.44171717872361    5.23892224801282    8.84194880716674
C        16.57244943724107    1.75301644874048    8.96963141698886
C        18.23866951040251    0.12578179017887    8.78754153142479
H        17.66810670267063   -0.43374130933662    8.03638590744199
H        17.98601331162363   -0.27991876853323    9.77450140111312
C        19.72964076496906    0.03930521340976    8.52225383322720
H        20.04496112387287   -0.99982646968371    8.54822162386304
H        20.27553849359693    0.59850311730291    9.27701646316358
H        19.95899435909891    0.45960758783633    7.54695495439087
C        10.97975497484093    2.49973797075378   11.27989288674510
C        11.09268924967683    3.37936368442556   12.35386722674945
H        11.74573391547585    4.23886448352400   12.27709199514167
C        10.37116407839220    3.14932700837268   13.51083834206148
H        10.45683286899228    3.83307045895402   14.34249743209095
C         9.54732675940234    2.03902161820330   13.60588502456041
H         8.98691084529199    1.86117994628167   14.51170843026995
C         9.45337772493616    1.14966627165439   12.54702566388188
H         8.82508252503944    0.27559171425812   12.62959958116276
C        10.17150667225416    1.37056072415321   11.38616885065212
H        10.13229673055265    0.66589656189673   10.56841513924275
C        10.99054313872449    2.23961600053696    8.37648282012577
C         9.60726665130431    2.36930465880796    8.32346535796367
H         9.06480482141029    2.74888555186387    9.17760860541998
C         8.92236133022648    1.98642944384218    7.18347110797582
H         7.84689762131193    2.07889921666407    7.14805552442652
C         9.61027749594432    1.47988042867880    6.09346732072457
H         9.07053493366890    1.17730550237441    5.20869585239148
C        10.98985523174872    1.35015419237540    6.14012780750109
H        11.52318387952654    0.94650098513194    5.29265401439746
C        11.67976218946291    1.72756820644719    7.27700164969848
H        12.77253943896648    1.60840969618285    7.33168340159765

