60
CSD_code = MOHKOL | q = 0 | S = 0 | Stoichiometry = C27H30Cl2Zr | MND = 12
Zr        1.41999085253349    2.23768523752513   13.06195499395349
Cl        2.42734669969780    4.35467842022447   12.93643559440746
Cl       -0.69208586044091    3.19229353409033   12.73429146491500
C         1.28192087051257    0.23340762459804   11.62389550540282
C         2.65254031756725    0.42138204328602   11.92724660305895
H         3.29622993564148   -0.32066569701680   12.38254285072949
C         3.10265539164289    1.65879821773576   11.41051791657357
C         2.01182961098243    2.22404692310053   10.66621835132233
C         0.88023397957389    1.32900782087947   10.79237063120441
C         1.88239556964869    3.40384397618510    9.90553391288336
H         2.71700080053541    4.08628443369191    9.81231824024184
C         0.69260581798033    3.65605080650447    9.27094242638880
H         0.58062235787727    4.55253189893573    8.67966581190033
C        -0.39273490905534    2.76513274676617    9.36038014949216
H        -1.30321646400196    2.99972481460088    8.82982823081085
C        -0.31781229373930    1.61918786040511   10.10948287819948
H        -1.16192296964890    0.94517638254222   10.17504238923241
C         0.96202983892615    0.54680280716729   14.82177918337744
C         0.31397682926521    1.75023334519084   15.19628575617854
H        -0.75584218529019    1.86170596803267   15.34257705826303
C         1.26689209145151    2.77079969337097   15.41806827309622
C         2.56154528659775    2.17769436176852   15.25400120384992
C         2.36933070474970    0.77845434506950   14.91689674253760
C         3.86875638390942    2.68844506142691   15.38743512223558
H         4.02185204597204    3.73192416031247   15.62667207911672
C         4.93497412986441    1.83544722557456   15.25253912846570
H         5.94111899369214    2.21043449736354   15.36560696563767
C         4.74746464721266    0.46197545575841   15.00875870879586
H         5.61297436161231   -0.18277079344277   14.96478900236732
C         3.49350853049321   -0.06919447507361   14.84380735762517
H         3.36451544837840   -1.13368412178943   14.69212664675419
C         0.43362965726078   -0.95647846072101   11.96801026484406
H        -0.18344958161906   -1.21206844454403   11.10125226038240
H         1.07127377399548   -1.81877725438852   12.18561409859440
C        -0.49742412349927   -0.69888629941923   13.16817005043132
H        -1.27039927398014   -1.47138412999944   13.17474755951543
H        -0.99190727576336    0.27699490601458   13.04353489776600
C         0.23924721112840   -0.73600292392172   14.52207689200274
H        -0.50115611682717   -0.91350029533888   15.30908887993826
H         0.93742406164030   -1.57729164381294   14.53326413872666
C         4.51396061979679    2.17361218089677   11.46653628276480
H         4.51003086535408    3.26641457320131   11.53285361489171
H         5.01282666010160    1.78227392292404   12.36089936596029
C         5.30700090571005    1.75162251136687   10.22042632021456
H         5.32135652534667    0.66107452394232   10.15810705914709
H         4.79680074262257    2.12708458830999    9.33113292836054
C         6.73319023829751    2.28346127063249   10.25892840552802
H         6.73269173930677    3.36999651363608   10.30623439932993
H         7.27965779264351    1.97828485906148    9.36973029545253
H         7.25882416304920    1.90402049452788   11.13263968539194
C         0.95989308372998    4.16431901417918   15.88794240001643
H         1.73320327560865    4.85599805572516   15.53990365278204
H         0.00064883771595    4.48697222714334   15.46587970016863
C         0.88780426243455    4.22608368126416   17.42073042053981
H         1.84091029151420    3.88925940910278   17.83479452086866
H         0.11304136594539    3.54038141973553   17.77084250112550
C         0.58360748920976    5.63600405335038   17.90866718068999
H         1.35559170522061    6.32799542724749   17.57967909581433
H         0.53690319553326    5.66382573067075   18.99481612877333
H        -0.37077890564318    5.97757551442854   17.51428582096448

