37
CSD_code = MOHNUU | q = 0 | S = 0 | Stoichiometry = C10H12N2O8PtS4 | MND = 4
Pt        0.00137251850873   -0.00142469493655   -0.00113304282300
S         1.22541253270783   -1.52195958933090    1.31392670053708
N         3.26891138468137   -0.25241059734126    2.50626096437720
C         2.18357457858533   -0.17643292468016    1.72287474700354
C         3.94479259923503    0.96090548896261    2.89361085656822
H         4.09607637079672    1.60156894697472    2.01979073205414
H         4.91552099299319    0.71536434470473    3.32961125484055
S         1.71024596108966    1.28340654694400    0.97966315112658
O         1.91452948727776   -1.57835667633793    4.92604452849968
O         3.68145784866963    2.93133103739332    4.16111003589556
O         2.15206701843525    1.33258457971315    4.46966559306607
O         3.91045479853601   -0.78908073222218    5.55580377538841
C         3.13999937963810    1.74182849169782    3.92894472706430
C         3.17233757209531   -1.23526260020330    4.72028632939833
C         3.57634450815688   -1.44985527506774    3.25827742475651
H         4.65108555262292   -1.64351158446055    3.20338019876937
H         3.01079233599601   -2.28346059643373    2.83908430050689
H         1.61394578548478   -1.32732805310817    5.81422421854122
H         3.16840017428410    3.42315872859770    4.82268870985155
S        -1.22261452462161    1.52040454751112   -1.31512438290810
N        -3.26780435417045    0.25182619586027   -2.50564357190238
C        -2.18157405285784    0.17524716785778   -1.72356832549825
C        -3.94402288583629   -0.96123832493774   -2.89338343332343
H        -4.09416510698022   -1.60275018121574   -2.01999570435317
H        -4.91532694789711   -0.71534817337487   -3.32794274327678
S        -1.70755796107049   -1.28511244870510   -0.98184949351463
O        -1.91640264718123    1.57768579841716   -4.92562889952852
O        -3.68142160536686   -2.93065771505271   -4.16271934577541
O        -2.15365893513747   -1.33072065267491   -4.47264905628120
O        -3.91436253993942    0.79256168544805   -5.55409709213116
C        -3.14042181797868   -1.74097116343938   -3.93048382922981
C        -3.17448308719278    1.23638339518727   -4.71887458874790
C        -3.57639137620438    1.44993146269955   -3.25612493045307
H        -4.65102765647798    1.64360505367208   -3.19935548193858
H        -3.01011993152927    2.28312351053523   -2.83708976738566
H        -1.61699699951193    1.32668614192938   -5.81422152931771
H        -3.16896896984342   -3.42172114058189   -4.82536302985754

