46
CSD_code = MOHNED | q = 0 | S = 0 | Stoichiometry = C16H22AgN3O4 | MND = 2
C         2.46775220317629    1.52429593155274    8.82014371989085
C         1.80448893877240    3.22254536555985   10.46492929004377
C         0.97533496255652    3.89839896016704    9.39208637382080
C         1.00180958407325    3.21878527736506    8.02434416923240
C        -0.48999376836167    3.93787952308976    9.87559329537203
H        -0.52659793999859    4.48024410903032   10.82219957090172
H        -1.07415461882241    4.48215753747313    9.13183957255632
C        -1.07055800938510    2.54031198538506   10.05915914672794
H        -2.11099622211864    2.60614659692618   10.36926812671258
H        -0.52153252803515    1.98968588915339   10.82118009434499
H        -1.02534037929293    1.98119113080424    9.12592225538466
C         1.50599762820533    5.33757721823361    9.21821963748281
H         0.87147194949654    5.84328757406233    8.48869863099270
H         1.42550504067921    5.85335892111870   10.17686526588520
C         2.95337153367511    5.36101403908117    8.73997146899590
H         3.28256265244635    6.38776242646480    8.59692317656922
H         3.05142859713446    4.83341201099381    7.79240558980660
H         3.60984800751340    4.89051641140986    9.47008600184243
C         1.54829471574708   -1.37699050383853    3.96746145858244
H         0.53379789441224   -1.27003489805327    4.32730696615953
C         1.87741601669452   -2.37206852900323    3.06632925723327
H         1.12434944950143   -3.05963514330708    2.71680670754949
C         3.19047960053396   -2.45789582866567    2.62693976228778
H         3.48808231800960   -3.22089263550634    1.92360184844949
C         4.10939608149590   -1.54255471499120    3.10612042280825
H         5.13975386026769   -1.57219116636874    2.78814609077720
C         3.69872407351084   -0.56823074867044    4.01063451420797
C         4.66416208931350    0.41511225586814    4.58417825757551
H         5.45870846238329    0.64189776757490    3.87294645458113
H         4.12567362688467    1.34371970677591    4.83524991195460
C         5.30160532387105   -0.14310630816791    5.86497453475808
H         5.85583233261950   -1.05265459750283    5.62820789389524
H         4.52597713690246   -0.37180599533350    6.60264980114668
C         6.25764751342744    0.87276832557727    6.47798853343725
H         5.70689510931207    1.79502909754795    6.71429341377160
H         6.66594421914784    0.46555932373368    7.41205234111298
N         1.74049067100275    2.09658200458689    7.85651802760509
N         2.48529347006994    2.09613607891762   10.08018021718632
H         3.04436640852361    1.62399965982826   10.78213748815298
N         2.43240859226812   -0.49666541430923    4.43161488929263
O         3.12094799185598    0.50657604433204    8.60051342852599
O         1.88350687112671    3.63163052371179   11.59927905987526
O         0.37245100705723    3.67343397873368    7.08807931329222
O         7.29599698353599    1.13392346575611    5.55434724043100
H         7.91416303099100    1.75902146490702    5.94452446050755
Ag        2.03753751784961    0.82446587800513    6.16418231828341

