40
CSD_code = MOHPIJ | q = 0 | S = 0 | Stoichiometry = C17H16ClIrN2O2S | MND = 4
C         2.61779280210697    5.76605988342053    2.57327246054237
H         3.28087208485848    6.57437466348946    2.80428216066101
C         2.00144754327602    4.94653964329221    3.44111171957641
N         1.21972227945714    4.01120144032626    2.78253867621561
C         1.24657129994019    4.12648186022069    1.40686927115852
S         2.26780049271839    5.42486586532515    0.89085203817960
C         0.40801473282966    2.99559659617380    3.16338109200178
N        -0.06264444963342    2.49412464167419    2.00601534083370
C         0.42772751172375    3.16109354152709    0.91069348377625
H         0.16741007226774    2.89915071428876   -0.09237275987848
C         2.09308925043740    4.95002491568541    4.92160423896650
H         2.61969188786713    5.83454095677103    5.26742349978480
H         2.63226706605979    4.06221714565239    5.25371870943870
H         1.09361090243636    4.91966441504038    5.36185118544146
C        -0.99524092750421    1.41998878345344    1.93510565722270
Ir        0.22245817840984    2.10357327090422    5.00891762693965
C        -1.51089978754455    2.67985556035323    5.30245442123324
O        -2.59208664061551    3.03170002901654    5.50942118180979
C         0.37283766812463    1.15072666118621    6.61634445226786
O         0.61513552077263    0.52724694313409    7.54373187865902
Cl        2.36536609034609    1.38880480643931    4.64214806109972
C        -0.52999194473745    0.11004106482860    1.82110225911483
C        -1.46703718368658   -0.91209075676110    1.77753800575895
H        -1.12345130048644   -1.93322601513633    1.69904400214042
C        -2.82876218872769   -0.65383742303085    1.83125551756869
C        -3.25891087745822    0.66422021414495    1.90780992367986
H        -4.31764126173936    0.87663075905608    1.93124151812237
C        -2.35875378230788    1.71596345644483    1.95570585861505
C        -2.82780611703648    3.13839621787035    2.00351163529473
H        -3.91072529396584    3.17914127322642    2.07502565233033
H        -2.51960452131358    3.67209395015397    1.10379787905309
H        -2.40411456581410    3.65683801906029    2.86187253914380
C         0.93498427089810   -0.17530571717997    1.73309086747841
H         1.11266110905189   -1.24084731498748    1.61918840631812
H         1.44703374113206    0.16529228577736    2.63297585972033
H         1.38024000033842    0.34576385901360    0.88532161612800
C        -3.81998154549333   -1.77605833722293    1.81890307721067
H        -4.06268245996831   -2.06158455937313    2.84264777366743
H        -3.41502317477580   -2.64870673442930    1.31263599687300
H        -4.74197648224155   -1.47545657883718    1.32696721585805

