85
CSD_code = MOHQAD | q = 0 | S = 0 | Stoichiometry = C44H32N6NiO2 | MND = 4
Ni        3.89251138416941   -0.29374363728573    5.43850272549824
O         3.00076707774088    0.75902246958394    6.74587263996649
N         3.21523465808802   -1.20168944594106    7.86018401755170
C         3.01059731616408    0.10623424310258    7.84439544553142
C         2.70847801910152    0.81714749508379    9.08914492684899
N         3.38547690141511   -1.67428137429968    6.59708537785324
N         3.49129656209759   -0.97499800368326   10.50383041437827
H         3.43113283506088   -1.42616920514964   11.40001345585844
H         3.50970042861009   -1.53853334230229    9.66130229113558
C         2.93767581912836    0.25810020712098   10.36362780499053
C         2.64817837577563    1.03884475878009   11.49013658322374
H         2.82407853728948    0.61661311457129   12.47000599042255
C         2.15098149278101    2.31671366690469   11.36563559019702
H         1.93561562305968    2.89454769221172   12.25317924225006
C         1.92256444687433    2.86295471014624   10.10834863890546
H         1.52900895509824    3.86307511149775   10.00987191674024
C         2.20393173129795    2.11333660874148    8.98766509480079
H         2.03730813419044    2.51373599405316    7.99888540598724
C         3.15139206563097   -2.92452460515051    6.38196770657405
H         2.96602433508833   -3.55740983420800    7.24880880719167
C         3.05355549540531   -3.49114232720675    5.05402632533057
C         3.56764273424866   -4.78016763564809    4.79275717732216
C         4.17781813716702   -5.57924084974957    5.79123333102077
H         4.25756963077263   -5.19810324877431    6.79742214759077
C         4.66918863859591   -6.81881849552530    5.50638612144171
H         5.12239012171911   -7.41445247943780    6.28547656784471
C         4.60028857556030   -7.33616974481122    4.19848459142868
H         4.99552055218268   -8.32079375060326    3.99614589080399
C         4.04918340140287   -6.58959185145561    3.20317479151191
H         4.00078680552049   -6.96481735647277    2.19092219078479
C         3.52703732535953   -5.29678238429746    3.46102058564203
C         3.02932079399716   -4.50336824101592    2.43192008954262
H         3.07283367880637   -4.86720110304176    1.41512131450325
C         2.50755065315261   -3.23703231558008    2.67501034918294
C         2.05821000227101   -2.41572338814341    1.60882314404260
H         2.14884550515978   -2.79817264290641    0.60263969695387
C         1.54618809057642   -1.17757742961779    1.84203628612364
H         1.23597084136974   -0.54607147098060    1.02339784389412
C         1.36746250215942   -0.73393872365151    3.16710018330528
H         0.86702451460304    0.20666999077373    3.34766564880531
C         1.79420607952427   -1.49097643069466    4.22402542270891
H         1.51151743827117   -1.18290941043674    5.22828065514569
C         2.45633731452661   -2.73918040423564    4.01313664286773
O         4.78498836180899   -1.34662778985678    4.13172374499786
N         4.57141495875528    0.61419163549907    3.01726252739692
C         4.77604012682904   -0.69376290252586    3.03320256956322
C         5.07837854681802   -1.40476025387178    1.78855432839790
N         4.40023218942906    1.08687288909884    4.28020909454853
N         4.29597970616914    0.38743757020257    0.37376908001972
H         4.35625095238510    0.83858989121916   -0.52241073853722
H         4.27742400420474    0.95098046167579    1.21626966894689
C         4.84954710502188   -0.84568020698604    0.51405932260593
C         5.13909014438784   -1.62648275892463   -0.61239375284865
H         4.96324258159691   -1.20428614852001   -1.59229784172726
C         5.63613288315019   -2.90439376474921   -0.48781463466948
H         5.85154316969791   -3.48226814386558   -1.37531985671587
C         5.86430921980016   -3.45063870110697    0.76949517874109
H         6.25788557312272   -4.45075935972138    0.86803771900831
C         5.58273687520678   -2.70101056560634    1.89011980796940
H         5.74943982615363   -3.10132852018200    2.87894523220054
C         4.63486453731661    2.33702543920485    4.49550402777917
H         4.82039525273310    2.96992074129145    3.62870125782731
C         4.73318106356015    2.90364192048994    5.82344928310266
C         4.21904551014734    4.19269519523292    6.08460002104032
C         3.60867010441859    4.99158264698869    5.08608456892818
H         3.52887281334541    4.61030122624781    4.07996164117584
C         3.11710008232754    6.23112300547345    5.37082379696448
H         2.66381124581924    6.82663305262301    4.59168398839607
C         3.18596874188112    6.74863196314042    6.67866208228523
H         2.79062925392236    7.73323717303704    6.88090580799774
C         3.73716886873531    6.00221192647642    7.67403585511218
H         3.78552718263512    6.37755518141481    8.68625094539092
C         4.25947623641285    4.70943146174987    7.41630622446765
C         4.75726598668428    3.91618467463482    8.44549110512509
H         4.71381440648962    4.28018132138859    9.46222870198503
C         5.27921474658962    2.64989438204915    8.20254764451523
C         5.72870025135447    1.82884217173350    9.26886498020905
H         5.63766311793209    2.21130594067349   10.27501596317744
C         6.24087765356326    0.59072625573739    9.03587746346545
H         6.55096685292554   -0.04069039681099    9.85460828011906
C         6.41957103357208    0.14683370871749    7.71093030797134
H         6.92022225186976   -0.79369292262269    7.53048977036318
C         5.99320683183629    0.90383705811171    6.65389709901056
H         6.27782102310548    0.59645938993397    5.64991627508204
C         5.33052519529837    2.15183922099094    6.86448038481523

