103
CSD_code = MOHRUY | q = 1 | S = 0 | Stoichiometry = C42H52MnN8(1+) | MND = 6
Mn        1.55170846564584   11.02948943973967    3.24831045855376
N         3.36446532219443   11.02756233792085    4.10962707805085
N         1.55170352302240   13.03431850315377    3.24832835195664
N         1.55170491200984    9.01974924705416    3.24831538863077
C         4.16149502101939    9.94254280751339    4.34150235108474
C         4.05044129985003   12.11279506774727    4.57580841821293
C         2.47553708654361   13.85377396308090    3.83190450072624
C         2.58741924732336    8.20015903788679    3.59746973522912
C         5.39761893266898   10.35221270779050    4.96243882595326
C         5.31745882656823   11.70430506140436    5.13169441149422
C         2.12166858856609   15.23706421598851    3.62362963297804
C         2.20251612994421    6.81747279930773    3.45422335816030
C         3.62401205047494   13.42769532715679    4.47903201644616
C         3.81553316938917    8.62737159464882    4.07668458587662
C         6.49694977392267    9.43529265642211    5.38182462034512
C         6.34298762000749   12.62327698422923    5.70471984088284
C         2.91387166297531   16.40938567118152    4.09529768582558
C         3.06855022153697    5.64461378271170    3.77014641521887
C         6.20113952056259    8.80467527365099    6.74556126389652
C         7.19942379038399   13.24886841589299    4.60008365669556
C         4.06600496590959   16.71846050489531    3.13494992664871
C         3.05589780301926    5.33644121796938    5.27004569709814
N         0.67561981579826   11.02594830483091    5.10000319488295
C        -0.37169040036945   11.80533632536021    5.50584443070566
C        -0.67504510468592   11.51276695788201    6.80155148120296
N         0.20122228397994   10.54277659573420    7.18423386226068
C         0.99750605333748   10.27590211985854    6.13549021585184
H         4.26328916231517   14.18661799375735    4.90176231206060
H         4.54840535519258    7.86886486224210    4.30246774657257
H         7.43158109408695    9.99424919688657    5.44227763066958
H         6.62935608565464    8.64772333194385    4.63714566417030
H         6.98853248531179   12.06740144222314    6.38601600725752
H         5.85586359400733   13.41339373372564    6.27995746654775
H         3.31299124275047   16.21247921317718    5.09247419565983
H         2.26323840176754   17.28203053246066    4.16546786433642
H         4.09315727501475    5.84055895430489    3.44729543440874
H         2.71023312833353    4.77145760995594    3.22335140076732
H         7.01306597596011    8.14449815795606    7.03945401694205
H         6.09175252669484    9.57708228970975    7.50346836323151
H         5.27985884888797    8.22697140081141    6.71157085792957
H         7.94381788906802   13.91331682530349    5.03116291556514
H         7.71240800100373   12.47399534972470    4.03511036205369
H         6.58182241256327   13.82005640784355    3.91047603181695
H         4.63221904901161   17.57584221661257    3.48958768098567
H         4.73896416299967   15.86771351693020    3.05330507178257
H         3.68113045629145   16.94389353750947    2.14307441330313
H         3.68629723943664    4.47709686384548    5.48344449970293
H         3.42358214579459    6.18628206905413    5.84116989834819
H         2.04415831365123    5.11425220501381    5.60180015813053
H        -0.83462427606974   12.51727569663639    4.85062236202451
H        -1.42257725348888   11.90842170102002    7.45669638988218
H         0.24181382438514   10.10631469508303    8.09203512651465
H         1.78549094041079    9.54684754226941    6.15433835009420
N        -0.26104651252068   11.02756622794519    2.38699374559333
C        -1.05807445439446    9.94254857984544    2.15510700594286
C        -0.94701376939576   12.11280161301285    1.92080547582974
C         0.62787376374337   13.85377779041495    2.66475222272780
C         0.51598501681183    8.20016217757050    2.89916868097410
C        -2.29418682908197   10.35222096994492    1.53414900962291
C        -2.21402493714092   11.70431481294340    1.36490245407226
C         0.98174127646192   15.23706651771785    2.87303888743148
C         0.90087796934329    6.81747505150467    3.04243366980558
C        -0.52058884912996   13.42770215401852    2.01760039396454
C        -0.71212325681101    8.62737746596289    2.41994075653883
C        -3.39351239051919    9.43530258107344    1.11474546326813
C        -3.23954240026996   12.62328971303097    0.79186073193223
C         0.18953587751443   16.40939109854847    2.40138345731392
C         0.03483615989306    5.64461825562965    2.72652371481931
C        -3.09767487262258    8.80468491235142   -0.24898508760587
C        -4.09599613195451   13.24887563288582    1.89648669130833
C        -0.96259931445031   16.71844405551276    3.36173596162616
C         0.04749052313253    5.33642326178721    1.22662889194283
H        -1.15986389741564   14.18662748821881    1.59487141059104
H        -1.44499643829410    7.86887237128590    2.19415468676344
H        -4.32814122933776    9.99426231347582    1.05427395844177
H        -3.52593381075332    8.64773319427959    1.85942274950645
H        -3.88507568011928   12.06741534785907    0.11055166721780
H        -2.75240689093646   13.41340885879959    0.21663463928948
H        -0.20958125545866   16.21249698847854    1.40420367781682
H         0.84016528578381   17.28203987842821    2.33122650488611
H        -0.98977021160854    5.84057548643835    3.04936873504592
H         0.39314455860054    4.77146739263403    3.27333258772018
H        -3.90959372991914    8.14450505723882   -0.54289268310394
H        -2.98827574125894    9.57709209979225   -1.00689025910481
H        -2.17639258717881    8.22698460590724   -0.21497689917135
H        -4.84038432176638   13.91332306453255    1.46539622489269
H        -4.60898790098308   12.47400022232978    2.46145028642869
H        -3.47840712645923   13.82006421771348    2.58610516394276
H        -1.52881972282158   17.57582677713225    3.00711114128763
H        -1.63555187052139   15.86769063427927    3.44336888408255
H        -0.57772572530465   16.94386509919451    4.35361458608029
H        -0.58291432104752    4.47707980254202    1.01324192871836
H        -0.32018711541376    6.18625762754713    0.65549057464447
H         1.05922935488935    5.11422198490665    0.89488056016197
N         2.42784431403046   11.02592066256456    1.39663295064597
C         3.47499699468315   11.80549057450221    0.99071520612657
C         3.77841942524770   11.51286179351504   -0.30495673235233
N         2.90227499836539   10.54271917520932   -0.68758797564039
C         2.10604160112132   10.27578845159322    0.36117577433346
H         3.93780888693605   12.51755633639926    1.64588776906435
H         4.52588806663827   11.90858743551283   -0.96013060456701
H         2.86173148041398   10.10621182302505   -1.59537139067529
H         1.31815907865238    9.54661609595606    0.34236912418207

