71
CSD_code = MOHSEH | q = 0 | S = 0 | Stoichiometry = C26H28N6O10Zn | MND = 6
Zn        7.43917973783976   -0.00029135999787    0.00003894594213
O         4.90888240107076   -2.05868747761183    6.41956833233016
O         8.79529529151689    1.54794338158571    0.55870063304680
O         5.93079766813043    1.33795509014695   -0.40155781776836
O         7.02802622833086    3.17370955002953   -0.54298831637451
O         4.90177865476697    3.17405021289536   -0.70963970716640
N         6.77003057437840   -0.04265073208076    1.96709590420431
N         5.15881349905878    0.13089696333939    5.81847309824597
N         5.94160161968742    2.58896847481965   -0.55836816337301
C         6.47543160141261   -1.15962258168915    2.62904503239885
C         5.94539216334297   -1.18268999697741    3.90351449986271
C         5.69951608520954    0.02795079650207    4.55261374624455
C         6.02758640104875    1.19858295708550    3.86205960012170
C         6.55205143213854    1.11223344934491    2.59153131098540
C         4.78016007123157   -0.88352484911807    6.67352689201925
C         4.21497366526582   -0.39646459613227    7.96183170309269
C         4.41763112264777   -1.18673377467322    9.09087875286750
C         3.91221479815101   -0.79714468844093   10.31645137136339
C         3.18327937306063    0.37632850208137   10.42249224821273
C         2.95464935641073    1.15367908677466    9.29871559576256
C         3.46889847115518    0.77456445356724    8.07175120819555
C        10.19740093639717    1.55918457833281    0.37092842404623
H         8.39905448522193    2.36321370543985    0.17463266165322
H         5.05589091218534    1.07584825232361    6.16423549646701
H         6.67905892544040   -2.09367463348392    2.12553593125019
H         5.72654564924573   -2.11839560966446    4.38891035762418
H         5.87080562548751    2.16626382287709    4.31458534603159
H         6.81405120632472    2.00999855317928    2.05580577797039
H         4.97875187242779   -2.10275190510482    8.98519559400736
H         4.08152229462910   -1.41030405935671   11.18851012574666
H         2.78397139961749    0.68120838506418   11.37807095854137
H         2.36971969904879    2.05791781112540    9.37725746028497
H         3.24910860279766    1.37632691636154    7.20058633776216
H        10.64940859988634    2.35184945345929    0.97447335537027
H        10.56833163396168    0.59114277365290    0.69803427627603
H        10.46526599713149    1.70628707209562   -0.67857926628115
O         6.08298601225600   -1.54860125969609   -0.55860219782788
C         4.68088745147235   -1.55990480339240   -0.37091738215945
H         4.22893434619426   -2.35263593402218   -0.97441720542650
H         4.30992434187274   -0.59190822242565   -0.69812147939338
H         4.41297312660307   -1.70693179771000    0.67859117946663
H         6.47925108224700   -2.36390163499441   -0.17460805776193
O         8.94734616314002   -1.33862815879384    0.40159893665584
N         8.93656351927015   -2.58964582975712    0.55839138478536
O         7.85021660271028   -3.17448604145774    0.54287646489222
O         9.97643623377026   -3.17464323913746    0.70976637282638
N         8.10806660621515    0.04219915504088   -1.96694675860794
C         8.40239222012830    1.15927229601278   -2.62883661401833
C         8.93201060529573    1.18255759808863   -3.90347553021513
C         9.17777392665199   -0.02797309584828   -4.55280043788774
N         9.71836099738111   -0.13070640469607   -5.81871930269213
C        10.09696265900180    0.88387486942544   -6.67359803663699
O         9.96789776082407    2.05898773749541   -6.41958129806414
C        10.66246728863603    0.39703178883991   -7.96183768330919
C        10.45984362003242    1.18734337150812   -9.09085777706325
C        10.96553458030631    0.79793244724910  -10.31637367983502
C        11.69468074984823   -0.37541230378863  -10.42237781887746
C        11.92329991679409   -1.15278227261414   -9.29861232992193
C        11.40880163189119   -0.77383618377319   -8.07170208537021
H        11.62859073774478   -1.37560113192234   -7.20053768131534
H        12.50837728383877   -2.05692595173568   -9.37712108415391
H        12.09415606592548   -0.68018357973404  -11.37792017304751
H        10.79628238585497    1.41113795366709  -11.18840911573248
H         9.89856585540493    2.10326456056675   -8.98518052398952
H         9.82157900015467   -1.07561139217654   -6.16451845806145
C         8.84985913774472   -1.19872257855368   -3.86235975120733
C         8.32581822659925   -1.11259017885406   -2.59164729662526
H         8.06397892898476   -2.01044258917302   -2.05599069504734
H         9.00645394102714   -2.16631859047725   -4.31513003235513
H         9.15063318282184    2.11836122358086   -4.38878221506592
H         8.19891575569012    2.09326219549057   -2.12515934393008

