55
CSD_code = MOHTOU | q = 0 | S = 0 | Stoichiometry = C15H18CoN3O12S6 | MND = 6
C         1.47273363233657    2.59870117889672    3.75463695315441
C         1.87270111438253    3.64279424525045    4.79314949054177
H         0.97173797522696    4.00805309001046    5.29222033086601
H         2.49136558995403    3.13348825091281    5.54107079008874
C         3.95308080127592    4.73971539031796    4.23233234885974
C         8.05940311123474    4.48869370774214    6.57331619892868
C         9.76769342683021    3.36846074209114    7.87471125293884
H        10.70644137123284    3.84496655565132    8.18169670904657
H         9.93814136100487    2.86865835031043    6.91771101113777
C         9.40013571283354    2.32289592085736    8.91193036005609
C         8.51864436262247    5.27709189317813    8.81621244088828
H         8.35267771567668    4.69441225983447    9.72991993819732
H         7.61993718505306    5.86747535630824    8.62080707593181
C         9.68172801540299    6.22362979123871    9.05556751960021
N         2.61475631414063    4.73968304167969    4.23208630477958
N         8.74992563720799    4.37736266668898    7.71322873351088
O         2.04326565748399    2.82473138712047    2.57389405797436
O         0.73133400792842    1.68432811565412    3.97585943383118
O         8.51863598881401    2.41839835572108    9.72158264022283
O        10.21570905204984    1.27410547365756    8.83492128304757
O        10.79077497967966    6.09535695535991    8.61431149188906
O         9.32190936366837    7.22129629042746    9.85976310331344
S         4.86536000663080    3.46823929824821    4.87461733258798
S         8.26498843828537    3.43493538059876    5.26341905605259
S         6.89963896670399    5.69574333401460    6.31254065964448
Co        6.67384214849451    4.73930305908547    4.23227840087910
H         1.82266984154069    2.12402038173396    1.93983186868000
H        10.06677213891819    7.82275128681131   10.02208887847064
H         9.98979803888953    0.60778653387127    9.50425414951605
C         1.47272607830139    6.88059626712306    4.70976561354333
C         1.87278735589720    5.83668091951927    3.67111448060698
H         0.97187398321375    5.47151958981537    3.17188834347783
H         2.49153851819235    6.34608341164725    2.92333580250605
O         2.04315108364703    6.65432919439343    5.89052159983506
O         0.73147714717010    7.79508334867018    4.48863886708977
S         4.86566197740006    6.01138311832639    3.59087359869267
H         1.82259468253464    7.35496047625764    6.52468971517591
C         8.05914229360067    4.99085737969237    1.89123407904137
C         9.76749625337257    6.11113528305556    0.58990918769986
H        10.70636833520435    5.63433276429183    0.28374505510292
H         9.93744275700214    6.61134818820358    1.54677588779643
C         9.40089765312961    7.15633357852853   -0.44800212497356
C         8.51818496683385    4.20272987461831   -0.35172396665616
H         8.35207377160273    4.78536799857899   -1.26543638415866
H         7.61956850177748    3.61227231513419   -0.15618382764159
C         9.68118056074850    3.25615043530909   -0.59097166300936
N         8.74946187564838    5.10247778617613    0.75123094584907
O         8.52015331729251    7.06065374683893   -1.25843961555375
O        10.21647894179330    8.20509531493150   -0.37057726613563
O        10.78980451604229    3.38350400775133   -0.14831766378556
O         9.32208977776210    2.25985511624467   -1.39719672574411
S         8.26450020167537    6.04451707599626    3.20128794628567
S         6.89922072138826    3.78387700028764    2.15162413845598
H        10.06704920283880    1.65846714159958   -1.55960597495384
H         9.99127357034132    8.87121037378279   -1.04033986317379

