30
CSD_code = MOHWUC | q = 0 | S = 0 | Stoichiometry = C10H18CoP | MND = 8
C         0.03062212951294    4.84336641832432    4.32200651236951
H         0.34191492614701    4.91779576971900    5.35111420164002
C         0.79811486514066    4.38204439538853    3.24676353919229
H         1.83216443445745    4.07116427430737    3.29382764411046
C         0.07313270953186    4.62802792150466    2.03167557304216
H         0.47581165305832    4.51700341298457    1.03662235376537
C        -1.14719878879918    5.20908116014739    2.36859262225761
H        -1.88069518650443    5.60992411269141    1.68813015229101
C        -1.21035947955539    5.27095571167595    3.79047994420717
H        -1.99329826085981    5.75864977522847    4.35257333655954
C         1.06401605749751    1.38719731377517    1.22779272897322
H         1.85801326716827    2.11127855220617    1.39521486892776
H         0.50274650138431    1.68376739356634    0.34395378109736
H         1.49881782239560    0.40063829318797    1.06915844671474
C         1.04818535737115    0.63092571735219    3.93759369038924
H         0.47322156114590    0.40684761913041    4.83332651830523
H         1.81930710320003    1.35297006234320    4.19669088885760
H         1.51095308325133   -0.28038312229623    3.56051619383193
C        -1.07732537214170   -0.10327307421637    2.24780534547528
H        -0.43360079376565   -0.95681709699702    2.03909436441957
H        -1.67823122867975    0.12056904579289    1.36876204736813
H        -1.74289932833098   -0.34477264311114    3.07326468567228
C        -2.28012552589664    2.44641539277716    4.56864806172941
H        -2.48077578723097    3.11122274522868    5.40161766083211
H        -3.57676822416756    3.52163504167992    3.23541831222439
C        -2.90155793736457    2.67908211390072    3.33726784937284
H        -2.04969550346069    1.42847283234267    4.86869341536299
H        -3.14382870281480    1.84280217547769    2.69054941818056
Co       -0.99165325723524    3.25865727896963    3.27606264912622
P        -0.06490809445615    1.37055140691785    2.67638319370316

