53
CSD_code = MOHWIR | q = 0 | S = 0 | Stoichiometry = C20H28ClIrNOP | MND = 5
Ir        2.31155135237574    9.09393018138250    1.01723015320559
H         2.26278991126946    8.61218110557322   -0.42358618804933
Cl        4.54786385761205    9.23082069770756    1.80809398949475
N         1.72709922785980    7.14885144756320    1.70126040007731
O         0.53235836112236   11.52877037039369    0.25594705836074
P         2.13931233847049   11.32489273975627    0.48758343130363
C         0.35157293985317    9.28182056669019    1.02565506677308
C        -0.26534655822311   10.49440964579893    0.72073529741893
C        -1.62011822446042   10.66958774475731    0.92088391041255
H        -2.09207290257860   11.60705938776235    0.66889152046978
C        -2.35778083785131    9.62360459782803    1.47120740170503
H        -3.41725664566464    9.75686229470805    1.62923517570602
C        -1.75464632572346    8.44004460068036    1.84442795996498
H        -2.34935944704925    7.66769288091809    2.30767307097234
C        -0.38475980101889    8.25975566257645    1.62785380481943
C         0.40089275212303    7.08542253833693    1.98822990546114
C        -0.15212883603332    5.95223157698245    2.57919730114785
H        -1.20505688081183    5.92649017680607    2.80512856393085
C         0.65470125651782    4.86982104402548    2.86892395094550
H         0.24697604026490    3.98893112511879    3.34194048135264
C         1.99023368756042    4.92791976901014    2.51492207909486
H         2.64657835475850    4.09119746301029    2.69414741722056
C         2.49512354027816    6.07649156267626    1.91136338133773
C         3.91514132437071    6.11381070216394    1.46726989435267
H         3.98255674250994    6.56027177383799    0.47574918591930
H         4.34425010952506    5.11584168866322    1.45391504047110
H         4.50347214010767    6.74204107963342    2.13552474718403
C         2.79150604336489   12.05561572563584   -1.11237480508496
C         2.05193216596792   11.30780043471397   -2.22278517622206
H         0.99667566181377   11.56943089347989   -2.22675831912241
H         2.14087441540044   10.23200066884174   -2.07543564373421
H         2.47695087730122   11.56448325964808   -3.19134396169943
C         2.53931268446947   13.55252904338697   -1.25244650999208
H         3.16932227846265   14.12784224742916   -0.57892073158035
H         1.49468237425155   13.78256780363274   -1.05478669506500
H         2.77073545223680   13.86402848081138   -2.27068685013056
C         4.27936600720758   11.72549588848089   -1.18706160011735
H         4.66827988391838   11.96062594377148   -2.17640907516785
H         4.43108894951733   10.66406052130741   -0.99598366227902
H         4.85194878255309   12.28650044836880   -0.45381613359324
C         2.41006858196913   12.43318648648581    1.99538375686217
C         1.59785007183273   13.72536234368238    1.95481738492305
H         0.57045636382202   13.52924651600084    1.65451562474917
H         2.02696138033234   14.45199984698426    1.27215375794006
H         1.58138830972080   14.17008283061217    2.94980571785639
C         3.89632624010046   12.71292703284482    2.17971581291769
H         4.26674368232555   13.40307415841965    1.42490379096815
H         4.46610213899206   11.78703914550119    2.12013152649020
H         4.07211649004577   13.15947325953824    3.15830004186625
C         1.90759499972518   11.56829426957474    3.15757625288358
H         2.06616249268006   12.07821440865838    4.10782649786717
H         2.45479631275556   10.62355052650206    3.19687491342519
H         0.84100988186912   11.35901339182773    3.05940008380169

