65
CSD_code = MOHXIQ | q = 0 | S = 0 | Stoichiometry = C30H31FeO2P | MND = 7
Fe        4.14960443952636    7.56401551330828    9.44057927637934
P         3.59462219344896    6.45030354389718    7.65314966178657
O         1.67695611173630    8.67196984988532   10.43743212377530
O         3.61391596607949    5.26650498965240   11.12852613225640
C         4.21104564238341    9.24493803773136    8.25747502476441
H         4.22337682641022    9.02130680878131    7.18145503497879
H         3.41152397000415    9.97911137502465    8.37781153180197
C         5.54366103501521    9.89292009842514    8.61198013855395
H         5.68960163948008   10.84314942679373    8.08023313954597
C         6.61145999854937    8.88424566417659    8.18946806265692
H         7.62395725046601    9.27583601510985    8.33478685933154
H         6.50506096302385    8.66664761008746    7.12302460364551
C         6.44750936995871    7.62330772983737    8.99240246736559
H         7.03199435698534    6.77667338368205    8.64296193359555
C         6.13925885083015    7.68903571541251   10.34691010625423
C         5.31696369770463    8.76804554241261   10.77066309373548
H         5.09870626263293    8.81800022095490   11.83631217612328
C         5.57518290366943   10.12366244694688   10.13383401475844
C         6.59353642296465    6.62028305075644   11.30469806481721
H         7.57888715112865    6.89936098438405   11.68328655533300
H         6.68405261658149    5.65324304740158   10.81405261467030
H         5.92232972131376    6.52822743320875   12.15512941979471
C         4.51072458647306   11.13646529969653   10.56326730678686
H         4.61076433473350   11.35807473782770   11.62398957746588
H         3.51146787370197   10.74827710410243   10.39760315340796
H         4.62260468392820   12.06497805334853   10.00710299401039
C         6.93893629490206   10.64776501870179   10.61165518794250
H         6.90798916394843   10.84880961786974   11.68082913772011
H         7.18626775317321   11.57441922455544   10.09707023948242
H         7.72914464811924    9.92407178387015   10.43173104727163
C         2.65245800327294    8.23200860354827   10.01703022697092
C         3.90392019852001    6.15409742533500   10.45605450326187
C         2.64675701863817    4.89730646563242    7.88635945485813
C         2.85668333174110    3.71520267242200    7.18695714675784
H         3.67133438839578    3.63400886981856    6.48119615990564
C         2.02520440080000    2.62893009646596    7.39944048508076
H         2.19979414045704    1.70943434582841    6.85937995458768
C         0.97375346352882    2.71639177931981    8.29541049769369
H         0.33041473152165    1.86443487078305    8.45855893034313
C         0.74576686804302    3.90001374855041    8.97948387020145
H        -0.07775466546197    3.97511784368024    9.67405495433712
C         1.57665853481656    4.98380543598559    8.77316626236245
H         1.41212528481531    5.91519212226946    9.30157668799004
C         5.03312868065704    5.90573552801408    6.68182212079597
C         5.47911465425285    6.59674950733689    5.56101782370076
H         4.90289824680502    7.42746593078845    5.17651155751546
C         6.65493501402421    6.21822151237283    4.93565116361532
H         6.99510675480755    6.75543700515794    4.06207051429420
C         7.39717696152457    5.15843500047310    5.42840016948106
H         8.31198601286826    4.86356226443454    4.93586108622261
C         6.97250887730138    4.48348540745334    6.56332553635084
H         7.55962347091072    3.66665158673902    6.95810007795973
C         5.80475037514662    4.86432222096458    7.19494983779352
H         5.47780423092284    4.36467234830186    8.09860814523023
C         2.44828751402281    7.08800635328716    6.37240204540499
C         1.56286542586677    8.10705712266365    6.69863511874407
H         1.62611081995617    8.56299687251674    7.67533711252433
C         0.62019257480620    8.53339004062266    5.78001095860258
H        -0.06145962861561    9.33025797629611    6.03879362828390
C         0.55009627868885    7.93807229782297    4.53182699347370
H        -0.18237395780095    8.27281570215963    3.81213688093268
C         1.41537308392739    6.90459242590069    4.20960787449249
H         1.35368565179680    6.42988891930405    3.24096041994482
C         2.35455405469810    6.47251171550531    5.12711363331814
H         3.01781247548133    5.65607865443127    4.87686748696053

