61
CSD_code = MOHXUC | q = 0 | S = 0 | Stoichiometry = C17H34FeO7P2 | MND = 7
Fe        4.78187481492300    7.39034125704205   15.48534508609376
C         5.40987978117962    9.05947371875424   14.28407884021086
H         5.48552244093230    9.02433388672200   13.20041412213062
C         4.13248748817597    9.27364926389166   14.82972998331612
C         4.05910401313688    9.27333590615830   16.23134196049141
H         3.07495254430959    9.39181539654897   16.67798030629013
C         5.17996852503309    9.88970138835058   17.02329738267005
H         5.10461445795892    9.58329662433093   18.06663210517283
H         5.09900227230613   10.98109411885621   16.99326113278798
C         6.49731332294815    9.38148782958467   16.44400236305406
H         7.35016547395533    9.80767518211547   16.98950921077405
C         6.60424021834459    9.70803373349550   14.94786527809709
C         6.40943037525176    7.87088258939032   16.58602367620617
H         6.34303400600316    7.65257856731475   17.65720479103997
H         7.34196366312130    7.41346021085621   16.26038118951426
C         2.90349769128124    9.42230700114259   13.97403775188612
H         2.74814194199121   10.48547849984240   13.77991394549545
H         2.01502808931134    9.04050041591851   14.47302891958877
H         3.01130355629734    8.92176572066588   13.01412334929172
C         7.90186099456915    9.16101266848731   14.34966829026090
H         8.75944126011858    9.48547537055645   14.93541965288822
H         8.02632403781766    9.52032941010041   13.32968976867505
H         7.88143456013539    8.07683906715294   14.32143855001445
C         6.55949625494471   11.22177855603733   14.68073317817381
H         7.36763387193789   11.71983202811686   15.21304054186379
H         5.61348392551854   11.65318437447810   14.99567092362401
H         6.67842000315173   11.41886816737444   13.61679948992936
P         4.14451700012961    6.41259224157773   17.26901411398682
O         4.01153029074383    7.41123282332175   18.55511832639691
C         3.61322642830268    6.90406562789659   19.81788567552264
H         2.86562991587565    7.58232411954627   20.23323447474421
H         4.47601209648815    6.86663620203181   20.48659780434972
H         3.19051900117593    5.90136374689999   19.72484387971569
O         4.84204848845845    5.10478474232195   17.91291968406355
C         6.23203643550153    4.86212462021655   17.85156436769696
H         6.36946227897634    3.79115409268832   18.00903529190880
H         6.75806304537578    5.41151585951181   18.63545153850891
H         6.63858173020779    5.15442455387656   16.88274302189527
O         2.69384212142937    5.66695767844811   17.30348179119015
C         1.55374551575403    6.43739842774488   16.98641560439107
H         1.06133412610791    6.77886406578854   17.89995204610361
H         0.87114375462072    5.80502552279149   16.41786370711705
H         1.83067083674338    7.30634964306620   16.38382448798377
P         5.95707391106711    5.99210288832114   14.36425487486238
O         7.49265229471493    5.66793466627035   14.75494950352090
C         8.27907555109004    4.73054823325777   14.02985303657218
H         8.15366514507379    3.73114576495674   14.45105193702862
H         9.31746480295119    5.04503596699393   14.13359548745236
H         8.00111040559191    4.71757232025328   12.97734160656170
O         5.36426634956679    4.48849049883787   14.08565102940798
C         4.52064525175547    3.75128139613106   14.94035032406648
H         5.10229717202395    3.01274051177637   15.49662582344634
H         3.78794553567311    3.23818561386908   14.31466121514676
H         3.99968741596732    4.40025946516322   15.64440118394008
O         6.22016376458232    6.31997952151102   12.80332407743477
C         5.14467374906433    6.47833645233539   11.90443673431280
H         4.58797260934064    5.54583265135840   11.79682117826478
H         5.57652748622249    6.76308238624914   10.94472193957939
H         4.46348559376609    7.25784399430600   12.24952848272162
O         2.62189245714976    6.16633805876109   13.99170223616054
C         3.44141785384864    6.73874468863194   14.57625172440428

