45
CSD_code = MOHZAL | q = 0 | S = 0 | Stoichiometry = C18H18N4O4Zn | MND = 6
Zn        0.64524251564729    2.32836436781780    3.30449759003379
O         2.01122670019961    3.68087367137907    3.25655957058959
O         3.67917594138993    4.48841701212096    2.03079092357674
O        -0.73632732908748    0.98066941161612    3.10981363242488
O        -2.38196133927878    0.27180568244212    1.79700781950440
N         1.80802304386820    1.47100114559198    1.68385131227403
H         1.97920876606097    0.47230210107156    1.74994742701625
N        -0.43907636075401    3.26800669615659    1.66981272283655
H        -0.60522795851056    4.26398983418521    1.77625555347611
N         1.45432267480545    1.21547114846515    4.93477579792665
N        -0.35560734966086    3.24800149406561    4.94240985407003
C         2.91912276823205    3.60371995503322    2.37420378227346
C         3.07345266012666    2.20162017228079    1.69225826261334
H         3.48420879698289    2.34016083350125    0.68557320249759
H         3.80958798928335    1.66112249920943    2.29247672280588
C         1.01902787566029    1.69674852317039    0.47500779205003
H         0.21805868154680    0.95432218066121    0.44891061797443
H         1.63391391111165    1.58649099034619   -0.43032841346853
C         0.40596929248866    3.09347952811991    0.49078118935856
H         1.20658982625050    3.83553031703519    0.53393565109122
H        -0.16566690733676    3.24351582151117   -0.43689201978159
C        -1.71113199092746    2.55472480479455    1.58147151514099
H        -2.07261837140841    2.46870785779633    0.55030748257139
H        -2.46953655247102    3.07832167197863    2.16909783682577
C        -1.61166774497270    1.12074786326276    2.20292082060594
C         2.31846942507535    0.22900819734535    4.92297915193908
H         2.79310504234643    0.01309219168329    3.97703116237330
C         2.64062319442649   -0.52558836192477    6.05542269270819
H         3.35824306076274   -1.32742157193533    5.98237802284346
C         2.02866195876196   -0.22351422809693    7.24626621472611
H         2.24772455002177   -0.77806609149640    8.14730557266657
C         1.10049803972466    0.82976874471364    7.28809061157593
C         0.83996310953862    1.52483895132414    6.08411281307500
C        -0.10654277371783    2.60549647969177    6.09080386950028
C        -1.19857361258688    4.25277813216156    4.94575254326207
H        -1.35546291627541    4.75403661961784    4.00193581391830
C        -1.87154460604653    4.68722231583586    6.09211653945502
H        -2.55399735338674    5.52032075355513    6.03321755816257
C        -1.64683337577052    4.03309140730849    7.27781545114046
H        -2.14948866078108    4.32957993523473    8.18712264289513
C        -0.74072280156202    2.96022393266451    7.30429035497154
C        -0.45014941021481    2.23597522939312    8.49593163334623
H        -0.95389885655632    2.52813135906300    9.40550141061457
C         0.43185024661630    1.20951372063381    8.48717793287424
H         0.65096620037590    0.65759669961402    9.38930136166565

