29
CSD_code = MOJCOG | q = 0 | S = 0 | Stoichiometry = C13H12CrO3 | MND = 9
Cr       -3.16226009410880    9.89263463076023   10.22610639671290
O        -2.98810263177566   12.84983164823733    9.96009291073165
O        -4.96191951514152   10.41331806942417    7.91676334321461
O        -5.64443448305415   10.69781798647126   11.65660456268331
C        -3.01984263455990   11.69995001453302   10.08336420015932
C        -4.25937734435156   10.17304721587700    8.80475960086454
C        -4.67233488008936   10.34876952982637   11.13820680012794
C        -2.66091619501807    7.73424338289845    9.76366509523966
C        -2.85735230301656    7.83321571662375   11.13858529809396
C        -2.09515529302135    8.75218351322468   11.88752595217942
C        -1.16915958462950    9.56471414666307   11.24070602916117
C        -0.96737407814191    9.47331917830605    9.84157034177928
C         0.07875447221616   10.33665093244031    9.19187429519889
C        -0.17324585607035   10.46503415813739    7.69352097909795
C        -0.27077135914053    9.07107076919141    7.08515773914406
C        -1.51184461585552    8.35756441795067    7.61650461112458
C        -1.70781617260279    8.54436025861019    9.10032582240777
H        -0.53560864304119   10.22976699540267   11.81742374584531
H         0.07959124227448   11.32365594596266    9.66062745620648
H         0.63669601495588   11.02823270650589    7.22825486928306
H        -1.10841047475456   11.00598868307336    7.52885114440577
H        -1.45306877433097    7.28836250653639    7.38978013697298
H        -3.53570198901030    7.15599524635781   11.64362103332001
H         0.62633145795421    8.50237784379133    7.34450212510264
H        -2.19083328434785    8.78181308158623   12.96631397832784
H        -3.18826981788056    6.97613441399286    9.19505046367634
H        -0.32458279581037    9.13024009532941    5.99739907581208
H         1.06736868007613    9.89149660123484    9.35876209265120
H        -2.39735904772344    8.74651031105128    7.10327990047539

