97
CSD_code = MOJCIZ | q = 1 | S = 0 | Stoichiometry = C50H39CuN3O2P2(1+) | MND = 4
Cu        0.53832806093850    8.82968695703674    8.32084268896630
P         0.05948345459182    9.92948369893553    6.32501687564483
P         1.99009932418076   10.01325597953089    9.67807067134243
O         2.48069979994063   10.66643975068189    7.07740023726357
O         3.93584414719015    2.66166676829677    8.73085179553340
N        -1.26753731493284    8.25675073234502    8.92991762911883
N         1.64777124393776    7.11717089193597    8.12422359120557
N         5.32307545604734    3.72198226714325    7.32645722760394
C        -3.76086509753095    7.89143982318543    8.40709094663395
H        -4.00297469247811    8.30213775744132    7.42620579368364
H        -4.36500609019036    8.38890386913871    9.16562083390030
H        -3.98053194378927    6.82407542136988    8.41836823068199
C        -2.37797072299310    8.09868754577877    8.68388968075791
C        -1.66549568983334   10.03536605005972    5.74897875225702
C        -2.14323839462201    9.40496669494591    4.60610483733902
H        -1.46753234970987    8.85196204927659    3.96995476290883
C        -3.48493326786843    9.49693937225135    4.27597375269321
H        -3.84970905043685    9.01367958648946    3.38214371976002
C        -4.35742409360617   10.21009904369426    5.08175679779232
H        -5.40137208458472   10.28223410687082    4.81701708995766
C        -3.88755008400828   10.83470495124995    6.22802232562304
H        -4.56576597868991   11.39356365212516    6.85629528898938
C        -2.55048051160663   10.74032580745033    6.56464276925536
H        -2.17495223699984   11.22164755492753    7.45825955564307
C         0.89203775068238    9.04071221888934    4.97518453340309
C         0.75167706733936    7.65392961605119    4.97453323229012
H         0.14394157212329    7.18798812581972    5.74160984070028
C         1.38077719513772    6.89047277798376    4.01045173821941
H         1.26705694368016    5.81654615085843    4.01051321415427
C         2.16372080571406    7.50731097147046    3.04640256511498
H         2.66129611019108    6.91292694527447    2.29549480675400
C         2.30692366266337    8.88501396960730    3.04522070949893
H         2.91313055602499    9.36318957921311    2.29034906238936
C         1.67365164151511    9.65577847008944    4.00538666826045
H         1.78271216880003   10.73127009700830    3.99806647919700
C         0.63536387239098   11.64037310545971    6.11537637139261
C        -0.07501389597102   12.72661124187835    5.63213267857861
H        -1.07969499119192   12.59405173970609    5.25904884889553
C         0.51514613407071   13.98049264775264    5.62990954090211
H        -0.03199110332694   14.82771054486773    5.24708669886191
C         1.79793791522023   14.15210899968910    6.12087824063013
H         2.24590813494271   15.13357721033568    6.12501829152624
C         2.52115570490571   13.07660129453606    6.61447795808153
H         3.51493119915338   13.21554209852597    7.01268296394161
C         1.93554320643603   11.82533926984607    6.60285376680609
C         3.71248552775169   10.63067270124941    7.69652449877694
C         4.90685641780206   10.86802342919740    7.04156771476106
H         4.90724839727462   11.16651869710823    6.00372408460768
C         6.09370821858882   10.70561462138460    7.74069720729439
H         7.03274256328536   10.89326376461809    7.24374499205744
C         6.07999479713183   10.29915336553155    9.06465856643027
H         7.01053194623350   10.17309193016226    9.59635918481456
C         4.88139764683607   10.05634034425848    9.71679107635807
H         4.87540402826363    9.74367512520142   10.75071581176726
C         3.68592896678700   10.23298657660470    9.03675670916880
C         2.30177943958970    9.57644200183813   11.41417513003539
C         1.97725881270996   10.39909610852578   12.48573714374182
H         1.55183209178737   11.37669038121584   12.30822442802228
C         2.20564249470971    9.96270267784978   13.77946946136205
H         1.96079591007159   10.60547622703071   14.61165786575518
C         2.74519715423234    8.70808647199579   14.00947488425781
H         2.92308852875180    8.37462679537079   15.02040544238706
C         3.05056581083645    7.87606469685446   12.94281482349366
H         3.46359877298849    6.89455215646030   13.12258379148060
C         2.82100082262248    8.30375682867169   11.64971577825881
H         3.04775361644590    7.66075885515759   10.80733968217886
C         1.46760797032641   11.75749691594786    9.72640248319989
C         2.34432947480136   12.79577887436906   10.02595478886679
H         3.36688894503353   12.57630598936046   10.30223354572622
C         1.90162097247375   14.10451695750309    9.96741125280531
H         2.58083266500672   14.91082467723351   10.20041577375258
C         0.59289583052132   14.38413898127708    9.60669844922298
H         0.25690420469367   15.40829581807890    9.55355811087628
C        -0.28488737285504   13.35247522208214    9.31738509663440
H        -1.30508704163495   13.57354276486674    9.04083732934512
C         0.15202502281272   12.04231122362191    9.37802371003119
H        -0.51492078922783   11.21614750834668    9.15477872704419
C         4.95309153980402    1.81103594272219    8.45148323677514
C         5.18403512900890    0.52111747899105    8.89266210200145
H         4.50597715737750    0.02616148835712    9.56845109708161
C         6.32793958905280   -0.09150919970753    8.41793187135510
H         6.55195643500414   -1.09880320202181    8.73301709200272
C         7.20481557366933    0.55392148979940    7.54072033427271
H         8.08254219788445    0.02484132035318    7.20290013882883
C         6.97840808006643    1.83934259225548    7.09919919953531
H         7.64952793506179    2.34237121597356    6.42320889643462
C         5.83193979429681    2.47519021465345    7.56506034394978
C         4.22821437106118    3.78454443462578    8.01951966997168
C         3.34067041743042    4.92205231771116    8.07090793398109
C         3.63997236743412    6.07695798505845    7.34218063427421
H         4.53810673205646    6.11349159176733    6.74895611223107
C         2.76617525406565    7.14120587907345    7.40258168207625
H         2.95807901827460    8.05095165798835    6.85180882041273
C         1.36141939289432    6.02424443468231    8.82483438469032
H         0.44612094610933    6.05783099861982    9.39954814105298
C         2.17021060793851    4.90560232748625    8.83313116195822
H         1.90670208645743    4.03510292258674    9.41197553569988

