100
CSD_code = MOJCAQ | q = 1 | S = 0 | Stoichiometry = C41H48O8P2Rh(1+) | MND = 6
Rh        0.85392090037562   12.56882660236844    4.07557625955310
P         1.83245398698324   12.07921680816241    6.07265007252592
P         2.30816535252431   11.02477387607846    3.26914402601428
O         1.06038338399338   14.32740136123524    7.17197068364948
O        -0.20436469718033   14.92071841480930    9.59688178547819
O        -0.74308889047776   12.78315157818089   11.37888533571941
O        -0.20619413792849   10.18720994690345   10.57142247881544
O         4.34346864191566    9.53861064984358    2.03723463655797
O         6.39086395171739   10.41954476976778    0.26959061028780
O         6.55894272682498   13.09177513284907   -0.33049375542637
O         4.65985544524390   14.90118201238453    0.72050005290481
C        -0.01323359324801   13.32362541695026    2.25021626389334
H         0.58996396546685   13.31879906605680    1.35244140751197
C        -0.60203733840528   14.59733895924200    2.86449530711925
H        -0.31753977569872   15.54044598412572    2.40526584525700
C        -0.25252178775912   14.41847752774874    4.34194165505584
H         0.24837849903832   15.16677941714233    4.93946080576160
C        -1.02627716567795   13.37891444219261    4.80359440714691
H        -1.25435631577016   13.14549587757382    5.83410665268738
C        -1.85934947382625   12.89940008453384    3.61481381388411
H        -2.72432921592546   12.28286737128518    3.84039407260894
C        -0.79426545188712   12.28014853260403    2.71075903531709
H        -0.87897296231597   11.29044842747393    2.28064869824875
C        -2.09603082402863   14.23372241199942    2.88654228213378
H        -2.69892735160507   14.93447940163557    3.46308314370171
H        -2.52229510084892   14.10874154786216    1.89156158575079
C         2.47930855609990   10.34886032385333    5.94138489689041
H         3.10020297491475   10.10555986530349    6.80835968496127
H         1.61797549120276    9.67442995607580    5.92166521702136
C         3.27016088903973   10.23731743351349    4.64478795302052
H         3.51829936670594    9.20477749383095    4.39590771872142
H         4.20364340010930   10.80324280579293    4.72551055309025
C         1.03024977919532   12.09172319007230    7.69461261071903
C         1.57801138030362   15.57341809071980    7.60719329026588
H         0.77647304735706   16.25304020742134    7.89942184140658
H         2.12501798843506   15.98320589433069    6.75786415882496
H         2.26519049094253   15.44351559429728    8.44472186175256
C         0.72205862826268   13.38253873213445    8.10622150983183
C        -1.09648629785130   15.30881000723295   10.62372267447214
H        -2.06790217002477   14.82183075168692   10.51852417701335
H        -1.21576762209101   16.38413231960215   10.49064817871197
H        -0.68801964869523   15.10510038769176   11.61363884656472
C         0.07303823958398   13.61586562141797    9.32594285027936
C        -1.69388256542183   11.91395114429678   11.96941381865092
H        -2.40411006296248   11.53580533536663   11.23175719819550
H        -2.22077948291469   12.52562752800876   12.70195314169997
H        -1.21266977402467   11.07581999804457   12.47397193562213
C        -0.21653412162192   12.51215195792341   10.15111982204725
C         0.05396035710400    8.86063792437570   10.17857920814367
H        -0.51329879198895    8.58590149087075    9.28398235757244
H        -0.27334835914667    8.24400963400729   11.01380213170861
H         1.12144025756282    8.69383950574002   10.00548955488539
C         0.08665750146369   11.20336969431911    9.70980826634909
C         0.67561365295532   10.99887548309066    8.47210609787003
H         0.89921153383434   10.00291032827363    8.13161568271878
C         3.37258221949623   12.99821051399936    6.34937996100418
C         4.78059686306427    8.44883550581163    1.24729364474197
H         4.42761316000327    8.53805589596193    0.21773169264429
H         4.33148245037141    7.56722110104304    1.70421763720456
H         5.86729425683601    8.35957819975020    1.25634709113720
C         4.16560213203261   12.80709592433145    7.47344255283471
H         3.85891118629145   12.10506297770933    8.23668011435776
C         6.91805429723974   10.53840460008928   -1.04096381515417
H         6.15223026418787   10.84712538802572   -1.75540672435310
H         7.26935708951854    9.53845534967417   -1.29654090400214
H         7.75359644722736   11.23798026339351   -1.07475514679106
C         5.33707834781174   13.52995402283966    7.61369433978303
H         5.95628560426920   13.38635486245304    8.48632669499516
C         6.51784979963182   14.28823752400759   -1.08461658220470
H         5.57488391297717   14.39214862821996   -1.62400108311506
H         7.33633275899308   14.19784949839246   -1.79862226639437
H         6.67771654182137   15.16581596872445   -0.45768966106899
C         3.71537549264414   15.78516750437552    1.27272433922924
H         2.69892489587356   15.55134353454775    0.94020466662924
H         3.99391048415215   16.77078593414326    0.90351988747489
H         3.75295155122098   15.78551784497755    2.36664261466298
C         5.71858989964041   14.43740157216701    6.63759267718596
H         6.63599296342397   14.99425159946295    6.75131277553784
C         4.92249338960935   14.63753091747657    5.52063341818575
H         5.22164534215651   15.35098625307352    4.76697845433465
C         3.74784582212425   13.92255084411761    5.38283394798533
H         3.08607937560791   14.07066679645215    4.53137674879590
C         3.55925949520161   11.69745702246326    2.15353837096071
C         4.49202864629923   10.82112934276448    1.60613708705711
C         5.47438289562628   11.31668211075113    0.73604531800495
C         5.51732436309702   12.69736353261801    0.44684012863827
C         4.55901382205095   13.56677764472008    1.01168923241531
C         3.58964079024091   13.05148947796297    1.85297655024430
H         2.83977065179921   13.68849445899645    2.30262095017920
C         1.56994686347972    9.66441718026285    2.31718081611811
C         1.32395967960030    9.85923709939183    0.96063281433306
H         1.62401321223635   10.78953242492435    0.49645920229422
C         0.72279516046739    8.86493879305634    0.21218452715009
H         0.54586363101562    9.01602453692757   -0.84226758683103
C         0.34605792726879    7.67489968682391    0.81498719988275
H        -0.12159223753365    6.89781641610399    0.23026913163926
C         0.56647567457675    7.48625371898531    2.16921128289477
H         0.26659130678152    6.56225477590568    2.64062343952543
C         1.17023000869949    8.47858521739556    2.92152948839693
H         1.33493415115277    8.32519321444695    3.97799057034699

