37
CSD_code = MOJHEZ | q = 0 | S = 0 | Stoichiometry = C15H20OZr | MND = 12
Zr        0.78801616205514   10.00432324672150    5.76189119618800
O         1.16818531163829    8.59912143696064    4.56729860762347
C        -1.41368688896381    9.68999932811412    5.80168049492436
C         2.39427112446281    8.14855901241706    4.11096960307675
C         1.85683134642698   12.22212576035081    5.89384576273417
C         0.48555377523892   12.46258644085643    5.63884143291910
C         0.20381180871014   12.05716063063173    4.31118536144120
C         1.38816396542478   11.54389982096258    3.75170413532332
C         2.40217298185255   11.61738512134721    4.73180237905573
C         2.49430102510687   12.16335694011772    7.28098731347246
C         4.01671890473070   12.33852823795961    7.22432154881345
C         1.92855539469272   13.23388899627719    8.22094372919917
C         2.09396101202980   10.75282785739632    7.71065990103075
C         0.82370044900918   10.38882308093241    8.21739900309656
C         0.70104521453019    8.98053198445882    8.13745630308225
C         1.87826833080190    8.47277922617047    7.55887192133188
C         2.72815031038102    9.56294848726722    7.26717923762514
H        -1.94366605913268   10.41510454480001    6.44183615435489
H        -1.84710252778012    9.77213800966712    4.79199262413961
H        -1.67099336445663    8.68418150979926    6.17038048463392
H         4.48735032490508   11.60369502601612    6.57767623597922
H         2.99162166418560    8.96959770369448    3.66874005715040
H         2.24735772133946    7.38772143545936    3.32901409868399
H         2.98169168601941    7.68098473340437    4.92343857309925
H        -0.20726167253646   12.99803709783608    6.27783155950880
H        -0.72033913844457   12.24392626118419    3.77765875537076
H         1.52342501447654   11.24965384520247    2.71793097585374
H         3.44972097103677   11.39283391625388    4.55852245769346
H         4.26064345893669   13.32966315918861    6.84744566899502
H         2.35278888655591   13.11393757847797    9.21557793256895
H         2.18563577732418   14.22395240620072    7.85035535835881
H         0.84749779636916   13.17138522477571    8.30222778189481
H         0.11781069497358   11.03926851404529    8.72071653788647
H        -0.09538391008004    8.39120129301479    8.57528476431685
H         2.13302827564133    7.42403726940554    7.46413252883062
H         3.74863598773319    9.47393755167536    6.90825911725677
H         4.43771818479992   12.23269731095878    8.22204040248490

