132
CSD_code = MOJMIH | q = 1 | S = 0 | Stoichiometry = C62H62N3O2P2Ru(1+) | MND = 6
Ru       -0.44869101006219   12.42173858269943   18.52151400824562
P        -0.23187945416719   11.08086440786803   16.64319078839097
P        -0.39943704236893   13.77927121054904   20.40148456519482
N         3.35509255835792   10.37753748665306   20.27689758139347
H         2.37779321154531   10.65365239039268   20.07080224202214
N        -3.08100552948316   13.56833020048128   17.43524729111248
N        -1.55399272389614   10.05084923560256   20.25238741995233
O         0.32057017577315   14.81720543497775   16.93152093305730
O         1.51317417802475   11.75424499951055   19.11044328739368
C         0.65814265152750   13.82589867081092   17.55504489636807
C         2.12063265685333   13.51694126571766   17.69959042620875
C         3.10083098294491   14.21901311436805   17.04498061236474
H         2.80371314928317   15.04220747830283   16.40918271174587
C         4.46423527985830   13.88885621998939   17.18261588503774
C         4.80587255119216   12.86686504163668   18.02623612249738
H         5.84557946775042   12.60754831569185   18.16781223450987
C         3.83980820667641   12.11511680457479   18.74118655599764
C         2.44627695706416   12.42337784513862   18.54684190218580
C         5.49032620604242   14.66905313000088   16.42281759241915
H         5.30270195518896   14.59607814922096   15.35204192390810
H         6.49249078376251   14.30192631525455   16.62749142901820
H         5.44125077633436   15.72299518662690   16.69370103988587
C         4.23453413642087   11.09518706331832   19.60751907003219
H         5.28942752740249   10.88914899771532   19.73859421253461
C         3.54152953385853    9.35532458150083   21.19220373090126
C         4.79138918075348    8.90670396791424   21.61682136671825
H         5.69514952653818    9.35310701829838   21.23323296551357
C         4.87539242190158    7.88545821459426   22.54076168736796
H         5.84703561247274    7.54510661344685   22.86599358246659
C         3.73426381155511    7.28396413761717   23.06625326553998
C         2.49127221146429    7.73629504076515   22.63501552351896
H         1.59368495103181    7.28275818648365   23.02969636253099
C         2.39341383154349    8.75679037771164   21.71224709839943
H         1.42854545463153    9.11338010471836   21.37891817660615
C         3.85710154837958    6.17975849816047   24.06510265859617
H         2.88206998588412    5.86883376888952   24.42986862919542
H         4.46295003367101    6.49887082611214   24.91155973619929
H         4.35026119142445    5.31867879655435   23.61558037430952
C        -2.08953360303369   13.13246693242429   17.87520757534643
C        -4.24025247155320   14.12915280006498   16.85581300871720
C        -4.60191781714073   13.29484418387309   15.62302335221015
H        -3.78436245438047   13.30124495704801   14.90551475175931
H        -5.48895704204865   13.70613838126304   15.14967259204724
H        -4.80394335191222   12.26312219112438   15.90327285199495
C        -3.92315357381309   15.57479850305399   16.46382726120587
H        -3.04686893569535   15.60914462058731   15.82071517661597
H        -3.72692958705153   16.17349517799097   17.35032463028856
H        -4.76680311229756   16.00504581254795   15.93149639501777
C        -5.36068891578795   14.07975811178108   17.89892847737692
H        -5.57824888974902   13.05054523691145   18.17697966877969
H        -6.26226621292046   14.52719580821219   17.49055702930650
H        -5.07204709616587   14.62856631072968   18.79315904020789
C        -1.20937865538434   10.94381209983646   19.58804034567927
C        -2.12264267319622    9.01294027427447   21.02206437410210
C        -1.55330279619250    7.68190940296090   20.52223627700743
H        -0.47368835241725    7.64716576422754   20.65468852723570
H        -1.77738451960560    7.54929922523161   19.46517081791904
H        -1.99652266162457    6.86079885170958   21.07870389698167
C        -3.63987772743154    9.06141431001344   20.82156157855158
H        -3.88419337542507    8.91726114870545   19.77152116353551
H        -4.03131147970318   10.02317858119888   21.14579323353476
H        -4.11245671894187    8.27528872142898   21.40383758710012
C        -1.76593063653353    9.25731510310828   22.49151024663560
H        -0.68759880038257    9.24002588325977   22.63736773338717
H        -2.21059221989025    8.48283612893532   23.11030069098451
H        -2.14618687861962   10.22455269342979   22.81639315529389
C         1.44779582328823   10.40311627805508   16.50131617280811
C         2.37369871245747   10.96383308600748   15.62764215553956
H         2.06441116111651   11.74821708011253   14.95001883425516
C         3.68323877128901   10.51697675112013   15.62773685969168
H         4.39760084930028   10.95093002863034   14.94469397317827
C         4.07759357419059    9.51808469415396   16.50224830124231
H         5.09834892729533    9.16676938992352   16.49520705973999
C         3.16440746366909    8.97189503114314   17.39128443738411
H         3.47427486953421    8.19691570651353   18.07843211649182
C         1.85704681629568    9.42035464191939   17.40134355416430
H         1.14082040146075    9.01528763189488   18.10682301179530
C        -0.57246154613008   11.66101067572239   14.94792632187506
C        -0.97709119889466   12.96697632727712   14.70047455610874
H        -1.05265164383929   13.67093729457986   15.51583245113523
C        -1.25387378781657   13.36948761427604   13.40382296936649
H        -1.55907281156762   14.38780937923425   13.21281650680612
C        -1.13379604964037   12.47452644223902   12.35493618951324
H        -1.35074851975904   12.79057133191585   11.34585358249795
C        -0.72933552961490   11.17050730451517   12.59950130417556
H        -0.63072004361186   10.47229367343328   11.78182458132394
C        -0.45119357449284   10.76225862181698   13.88904654572666
H        -0.13485933350054    9.74604458117126   14.07946045853185
C        -1.30720828660899    9.60062135491423   16.64493974895168
C        -2.63880702830302    9.81608150659728   16.99242447649484
H        -2.94792234467247   10.81390413117092   17.28316183267465
C        -3.54764243673921    8.77518069835273   16.97027036704763
H        -4.58207662978749    8.95207607627824   17.22837593154261
C        -3.13237540428110    7.50204409909689   16.61111189540224
H        -3.83811470026962    6.68539012182233   16.59985264859348
C        -1.81063818969356    7.28165637998735   16.26271843310048
H        -1.48566949584851    6.29214867625867   15.97741287541042
C        -0.90038021218847    8.32547091021928   16.26907595031151
H         0.12599896768949    8.13868884931310   15.98563419105549
C        -0.48344799730595   15.59711727955404   20.31601603792873
C         0.00820006929459   16.40389575893869   21.33920432435654
H         0.51655583183844   15.96347026864921   22.18553185277579
C        -0.14095444120302   17.77587947469943   21.26479531154877
H         0.24700406953085   18.40000050910772   22.05611336519274
C        -0.78414292209644   18.35060872073158   20.17966654899277
H        -0.89337795078716   19.42320240953534   20.12556240573852
C        -1.28273920106682   17.54977702504190   19.16601497333422
H        -1.77754467768240   17.99778198262762   18.31723578651816
C        -1.13863364204656   16.17561629936474   19.23460288588443
H        -1.50667968181584   15.54274512854531   18.43991249498483
C        -1.72085011932297   13.50555453778555   21.63569818226403
C        -1.54600893376906   13.79196454699853   22.98637326453236
H        -0.59003952033333   14.14233945169432   23.34817625116755
C        -2.59266562721615   13.61680332544423   23.87340081706011
H        -2.44790643754435   13.83236278162658   24.92141550337378
C        -3.82501947654343   13.17246494711632   23.42160910592707
H        -4.63956768045770   13.03942182100640   24.11721564428893
C        -4.01037732744664   12.90452609042848   22.07510871537805
H        -4.97433521332233   12.57046038985699   21.71893231271612
C        -2.96295989245826   13.06906535916709   21.18625063315520
H        -3.09666769224014   12.85471079263931   20.13213453279498
C         1.12444429589110   13.45865845251551   21.33939033033252
C         1.18785286298941   12.37626187065065   22.21385046030856
H         0.29537888810247   11.79354461379311   22.40302435882576
C         2.37875567053686   12.05780962001155   22.84029062931481
H         2.42072628248465   11.22839162811164   23.53164094506439
C         3.52102688637263   12.79750029285801   22.57558045304254
H         4.44988163875019   12.54652067926432   23.06550989438884
C         3.47142740716409   13.85443865614573   21.68087139478676
H         4.36324471637634   14.42345824101467   21.46399128127706
C         2.27968221293297   14.18441674280830   21.06048520860970
H         2.23927364377124   15.00690903664812   20.35769247206555

