55
CSD_code = MOJPAD | q = 0 | S = 0 | Stoichiometry = C20H26Cl2N4O2Pd | MND = 4
C        -1.48438095084499    7.08473948036716    3.98606776029473
C         0.45326270555364    8.76120676817172    5.60256466230563
C         0.86908361431176    7.92632665652067    4.41552750421175
C         2.21493378930399    7.93201929763198    4.06551707360986
H         2.90230251928562    8.55670415453333    4.61793444200550
C         2.67248151351156    7.14846083188400    3.01743987336477
H         3.71638316642166    7.18139770538307    2.74378904336498
C         1.79832028509423    6.32366440315977    2.33092015931945
H         2.15641222478172    5.70720412452460    1.52054795522544
C         0.45983618772716    6.29195023175562    2.68076953007089
H        -0.23683249386488    5.65785410988363    2.15294059525995
C        -0.02107337831101    7.10239980549256    3.70491070937248
C        -3.28929210741041    8.56706454138076    4.16402191486094
C        -3.87638214835517    9.94345762897480    4.29819853241743
H        -3.34698663721295   10.66273563124072    3.65148689120796
H        -3.77269877809623   10.26507282101483    5.33928567893514
C        -5.33994687981147    9.73026341946391    3.89751449277462
H        -5.46852065429295    9.99276544769007    2.84810771957461
H        -6.02514329575051   10.33007608396586    4.49227837896280
C        -5.59896735847303    8.21715136381559    4.08616139142592
C        -0.10454775777484   11.03509970597246    5.99439369959806
C         0.15390713279826   11.12954712861953    7.46773730925346
H         1.10871129755352   10.67493214229213    7.72837592390141
H        -0.61646655866925   10.56899411487038    8.00124294881225
C         0.09279641353474   12.63827464092829    7.74115719058114
H         1.10109547420038   13.04089163142444    7.83377095452349
H        -0.44704992542101   12.86501494488751    8.65795440173670
C        -0.60480556409712   13.25856348061916    6.50675209230762
C        -6.37911804939396    7.61346154908327    2.92272487782362
H        -5.83472420961117    7.75838765808168    1.99260282802444
H        -7.35075076505929    8.09255713234618    2.83806066348158
H        -6.53063501322691    6.54755724479986    3.07584866063285
C        -6.28159468923547    7.90963238085651    5.42083124468549
H        -6.33755192624703    6.83506810445808    5.57714985447624
H        -7.29082175638921    8.31191502254809    5.42621265521831
H        -5.72363085446690    8.34835468091880    6.24472418481063
C        -2.07868854723613   13.57065552054171    6.77876139529051
H        -2.57012144125356   13.87605873506662    5.85852493001342
H        -2.16627269379386   14.37523979041544    7.50353040360897
H        -2.58601726754869   12.69088881417274    7.16809170476701
C         0.12009914885161   14.48969638466690    5.97383131160388
H         1.13863081587574   14.23480744373833    5.69279170493683
H         0.14638157269775   15.26845075218380    6.73127116078181
H        -0.38865285319210   14.87409861711646    5.09391840312252
N        -1.99776156005834    8.35553674268644    4.13485418603814
N         0.05300352572429   10.01025805256807    5.19540598299548
N        -4.24896732661753    7.67104561033150    4.10395551087179
H        -4.02344083030020    6.68529324204810    4.00190338029958
N        -0.53227590777238   12.18801588546308    5.52523057460508
H        -0.55996489016077   12.33755813871979    4.50051313922070
O        -2.14944501903004    6.06456296054865    4.03683771939550
O         0.51158790321749    8.38227959049338    6.75274245487736
Cl       -1.92059318602226    9.61441183489037    1.41858722757188
Cl        0.24082572540679   11.72655827999446    2.60311359126229
Pd       -0.85193174085112    9.92301753479895    3.36211142030789

