125
CSD_code = MOJRIN | q = 0 | S = 0 | Stoichiometry = C36H81ClO3Si3W | MND = 4
W         0.75937806639963    5.80004776090764    1.97758779944978
Cl       -0.52838450844977    6.02359055258786    3.91368562685066
Si        1.39561928431065    2.59998456536658    3.12086717790623
Si        1.66776230702757    9.02381554628530    2.77171145757935
Si        0.12125207291916    5.77581531165126   -1.32427946196987
O         0.83729446955829    3.98741973527163    2.44237403994175
O         1.03068723842736    7.65669602526930    2.14003748988718
O         1.00062321671073    5.75798513718140    0.05445791272335
C         2.50086748688536    3.11226903148608    4.66640142797677
C         3.66013863372779    3.97407180876354    4.15010210349764
H         4.39433028896458    3.37629193641119    3.61939024902009
H         4.17259218060951    4.46113927169908    4.97888176695962
H         3.27745156707067    4.74361803997071    3.47352747865095
C         1.71424590089976    3.96507837917218    5.67109620061854
H         1.07977029438551    3.35062808342025    6.29913340511547
H         1.08654304909790    4.69610306339574    5.17121783009188
H         2.40205611301118    4.49519610094245    6.32895916917262
C         3.07345461342137    1.92931108807586    5.45173121687979
H         3.67874756849062    1.27717660942863    4.83329914365779
H         2.27548207343620    1.33627846139263    5.88971213127711
H         3.69726046586763    2.29973336730627    6.26517612315026
C        -0.16740271138037    1.53671463779536    3.62302122619804
C        -1.21731689418757    1.56458964137478    2.50845977050760
H        -0.85478890405810    1.09228853127766    1.60277880639989
H        -1.49280060416601    2.59388159242999    2.28749965949501
H        -2.11343057265857    1.03281398459340    2.82827257359730
C        -0.84818468575847    2.12676974319794    4.86394963580095
H        -0.26198646504378    1.93991635556974    5.75763912023686
H        -1.82182402094285    1.65824213023139    5.00753068563760
H        -1.00000965630952    3.19831738879831    4.75412912234337
C         0.19483798803689    0.08233464321912    3.92738365872233
H         0.59426298638686   -0.42032822674589    3.05182164685674
H        -0.69173197471546   -0.46188119200701    4.25149522837218
H         0.93709275181293    0.02137841976331    4.71759144741736
C         2.53383574362319    1.84047664786750    1.69619140340530
C         3.17917909938886    2.99962874799385    0.91731481784545
H         3.99991791473920    3.43840332455958    1.47645428866085
H         2.45007075695833    3.80220677450098    0.71076844961114
H         3.58167127871976    2.64040001798423   -0.03004629044271
C         1.72140815342806    1.00748629337129    0.70049461116940
H         0.92274951046005    1.59266947106049    0.26830879079443
H         1.29895950685067    0.12873986737621    1.17880152293848
H         2.36669865565454    0.66360176025667   -0.10911852517789
C         3.64237285168697    0.91700091791624    2.20722213752504
H         4.36842879620722    1.44686992392283    2.81436585059808
H         4.17749009415955    0.48247157997760    1.36241640962001
H         3.22323132144176    0.10393363564918    2.79402819548748
C         3.03401952259023    8.40240594709178    4.03697177275454
C         4.21218601056444    7.75887193590099    3.29586460403702
H         3.84509163019708    7.03237474635730    2.56855515440572
H         4.85765973323816    7.23664048709352    4.00255208214681
H         4.82009315388338    8.49810879780170    2.78455271583878
C         2.42807644282146    7.28808985717875    4.88961847152162
H         2.01320995093166    6.52109690725849    4.21274645846427
H         1.63609782827040    7.64284838240847    5.53843600823855
H         3.19432294376442    6.82623141550606    5.51103590695870
C         3.57337158238888    9.49588854589964    4.96003062848577
H         2.78537215004380    9.89968959290085    5.58818964589773
H         4.00794431208723   10.31390222677902    4.39399923540477
H         4.34439782548169    9.08601770765422    5.61242982735497
C         0.22566005050474   10.03540459866754    3.62472305747789
C        -0.16243231581730    9.45721510966388    4.99064160490342
H        -0.42305110540041    8.40560059775647    4.90771469506211
H        -1.03318212259509    9.98906284196440    5.37492844418773
H         0.63751948289700    9.57535855875309    5.71563887889469
C         0.60041704358115   11.50339983751475    3.83847366183784
H         0.77957315607247   12.01354859378536    2.89762190238765
H         1.49578577211029   11.58981898354598    4.44760485848111
H        -0.20971399886210   12.02248822160057    4.35000400126479
C        -1.03121556966126    9.95028289271226    2.75179243071015
H        -0.87626577354236   10.40373177843315    1.77837556517766
H        -1.86044215333726   10.46363425682142    3.23814721112303
H        -1.30836086445534    8.90555205493566    2.61570297805466
C         2.51011404076709    9.92422790126679    1.24500600988534
C         3.58777603032008   10.92963716035790    1.65454230488808
H         3.17083142727687   11.69758461593642    2.30006290391617
H         3.99734592383769   11.41629512281651    0.76924919752008
H         4.40861367579806   10.45237448284581    2.17893702445776
C         1.49491803714054   10.69612609222020    0.39607959937158
H         1.07884947834219   11.53543431885786    0.94485258508871
H         0.68284632727498   10.05492854816825    0.07810923075007
H         1.98294809382939   11.09599042045997   -0.49396046082238
C         3.13953276803826    8.84766764972251    0.34569624295568
H         2.46850330476112    7.98449839766748    0.24909001811275
H         4.08088838744012    8.49492106492316    0.75227046213769
H         3.34452059387808    9.25205642086524   -0.64512179798031
C        -1.47480456734716    6.85002347989099   -0.92563275890197
C        -2.31130065913628    6.19464433104045    0.17913494018373
H        -1.64125129016104    5.90056232673098    1.01754796801558
H        -2.84912876810172    5.32443856575811   -0.18236387453741
H        -3.04987024186781    6.89863319062943    0.56154869052798
C        -1.02856568821143    8.19886192150547   -0.35946136564461
H        -0.59084090403547    8.82025481018159   -1.13134370790779
H        -0.29934866896523    8.03496043353528    0.44392011037375
H        -1.88292781269131    8.73591126803603    0.05321066265029
C        -2.36736606803573    7.11654674000029   -2.13947782288867
H        -1.81002829364449    7.61090727118972   -2.93018822856175
H        -3.19680992586143    7.76411007530710   -1.85569766278812
H        -2.78066377276985    6.19846527557008   -2.54323340325555
C         1.27106067211426    6.51730294467422   -2.73023308361634
C         1.28144541854749    8.04899732758792   -2.73412821175006
H         0.32238225530574    8.44386799534561   -3.05865700250339
H         2.03670968828840    8.40865448384544   -3.43400098358024
H         1.51660682440983    8.44205439121560   -1.75324820741642
C         0.84409219956383    6.09243977577931   -4.13713076808710
H        -0.18322015400978    6.38731178881965   -4.33435431286469
H         0.92723757709417    5.02132508830864   -4.28308090829728
H         1.48184391370740    6.57648139053120   -4.87683123333999
C         2.71218086025742    6.05358709474825   -2.48068546077493
H         2.80955535776320    4.98004604033920   -2.60205242045081
H         3.02218625184367    6.31000224209070   -1.46998992296321
H         3.39103043124630    6.53599446477406   -3.18361973408091
C        -0.36518369829323    3.91527009084469   -1.70042219414784
C        -1.44322818644130    3.74326677483820   -2.77200922954250
H        -2.39474791313394    4.14551195719373   -2.43754413649043
H        -1.58899948085005    2.68329108902237   -2.98143154372922
H        -1.16866408504105    4.23609526542159   -3.69845032549557
C         0.86526512330067    3.11403634542385   -2.13795437037439
H         1.21151930711375    3.42282030868290   -3.11887380085113
H         0.62101278694185    2.05279232724527   -2.19895122357932
H         1.67537346159373    3.24059639832288   -1.42737774968008
C        -0.88603870714313    3.27621147536629   -0.40973176536380
H        -1.88872043116622    3.61456527451575   -0.17478761066560
H        -0.23061600430231    3.52585908333769    0.43612617754012
H        -0.93990288745484    2.19381533227483   -0.52455317858112

