42
CSD_code = MOJXUG | q = 0 | S = 0 | Stoichiometry = C16H17BrN4O3Pt | MND = 6
Pt       -5.24144599877692    0.70493332033638    0.09483808708842
O        -3.36493846198908   -2.81550962498974    1.30476037927783
N        -6.10058886229649   -1.31056523324325   -0.49528375704503
C        -7.20436501028443   -1.59314453453477   -1.16828916608454
H        -7.73017006971772   -0.75050209484896   -1.59538098402463
Br       -6.83874712284809    0.46437737934809    2.03038230692106
N        -3.89341334743708   -0.71235570765514    1.10756626841119
C        -7.67357759222541   -2.88735529871210   -1.32678292626380
H        -8.57893338930799   -3.06746970344461   -1.88368203775237
O        -3.37778102282266   -1.53626242856017   -1.64141038808810
N        -2.75875866493281   -0.76917344623998    1.79992020598035
C        -6.95901131139462   -3.93454926616402   -0.76144624714736
H        -7.29503882508635   -4.95443875693601   -0.87039659283698
O        -4.68811963161530   -0.56188667009672   -3.16292762821270
H        -4.70621003374851   -1.46509101437968   -3.51246017612011
N        -1.18361039853086   -3.90039917365957    2.62202595513556
C        -5.80888815805665   -3.64809281212296   -0.04970126711236
H        -5.21532232773679   -4.41789326377821    0.41639010185425
C        -5.41683249364597   -2.31669251914808    0.06298310602634
C        -4.23809205462900   -1.94037674420060    0.80648979948743
C        -2.45288022616999   -2.03098311154764    1.90976345725307
C        -1.29850926740587   -2.57569752911701    2.59507437961328
C        -0.37642137348132   -1.71234491680082    3.18899902064520
H        -0.53101939955078   -0.64768870276527    3.13222840706657
C         0.71108331020471   -2.27227636329983    3.83567162358403
H         1.44924835465164   -1.64282617659285    4.31006504311801
C         0.83545624364788   -3.65355791332629    3.86410176908184
H         1.66876945062732   -4.12787316569637    4.35802108862997
C        -0.14239479058911   -4.41870120222175    3.24048694552353
H        -0.09142315559759   -5.49926031554119    3.23594018101924
C        -3.81389763392321    0.81199108579773   -1.46094703587498
H        -4.02529525535607    1.58925363907126   -2.19133913481822
H        -2.84475386790861    0.95533246818668   -0.98301011011819
C        -3.90606178404023   -0.51643126459986   -2.05536916646147
C        -6.55203157977732    1.83594065572247   -1.01240776807088
H        -6.26154895496532    2.88356051183851   -1.09701466687939
H        -7.54108584803459    1.79226626174155   -0.55148600196382
H        -6.60411591630507    1.41103516194959   -2.01829455269186
C        -4.43834607417633    2.41899872728816    0.89948509098633
H        -3.94370783790139    3.06230572486906    0.17307052712615
H        -3.70866488034054    2.07194330811230    1.63550071436853
H        -5.21735473653526    2.98726070996613    1.41016514937163

