56
CSD_code = MOJYEQ | q = 0 | S = 0 | Stoichiometry = C19H27I2O6PRu | MND = 9
Ru        2.68744770411486    5.58895142185798   14.43051255606486
I         0.15348264619017    6.00598658932643   15.22813338499051
I         2.09118214863727    5.94675745116313   11.83313435126198
P         1.81528430996492    3.58506517313379   14.00797427184831
O         3.07498463726726   -1.47759068958253   15.96920939336519
O         1.16162612291550   -0.52803020906165   16.77923545572447
O         1.81233833885599    2.69357937312672   15.36864442878210
O         2.98693943590090    0.11667163769703   14.25907726271764
O         2.62854152896420    2.60028591465278   13.00370372895604
O         0.35612773687721    3.26506078695312   13.38837295098054
C         3.15339709611996   -0.13684577445947   15.63234183571014
H         4.15195150041141    0.22293700785904   15.90529175920945
C         1.97194334971501    0.53255930547275   16.36640691459618
H         2.27253813868861    1.15239842893188   17.21849732314272
C         1.29035714037104    1.37690163855619   15.28531977151222
H         0.20582226108567    1.40074942228054   15.42962824883417
C         1.69183232983498    0.62579318010534   14.00128665251743
H         0.97558553507646   -0.19252986767776   13.82945056496686
C         1.76115213935972    1.51116366621643   12.75295147644618
H         2.16289010056076    0.94474276664979   11.90983101360862
C         0.41243345961921    2.18229633033994   12.47040110203751
H         0.38095348665827    2.57983122892554   11.45057871045386
H        -0.44070615983931    1.52511999592149   12.64638751186563
C         1.82250348901057   -1.77515261302570   16.57411933753557
C         0.97169988723667   -2.66791184418656   15.66998179384472
H         1.42366252619744   -3.65259671469028   15.60747571648857
H         0.91261955180169   -2.24682812385093   14.66999319644080
H        -0.02777609501126   -2.74556163107022   16.08655965762347
C         2.08030898440015   -2.44801194839555   17.92351113742476
H         2.65706366926883   -3.35392936802821   17.76857980500013
H         1.13257921027510   -2.68669165317312   18.39493443258805
H         2.64065747198063   -1.77513174064529   18.56688023978900
C         2.93521529408008    8.56005743309521   16.26048652654337
H         2.98331005004714    9.35626354944241   15.52055506627404
H         3.47850372208619    8.87436454376696   17.15299665287899
H         1.89079307623043    8.41088567500236   16.53855739926926
C         3.53186912832759    7.29403413467962   15.72745087243469
C         4.22895673360020    7.25620868617648   14.51261307849576
H         4.34258199602629    8.16294119218798   13.92448857345865
C         4.84327643433144    6.05659382713964   14.05996177433184
H         5.40879128238131    6.08478900712880   13.13479759891516
C         4.78528393375422    4.87258873271253   14.81694266388518
C         4.06388844954717    4.90919401347855   16.04530938499223
H         4.03631401746363    4.02281442724435   16.67262676240374
C         3.44276358585878    6.08628272657974   16.48154624789107
H         2.92991155390153    6.10452002016646   17.43936969401904
C         5.53542301285741    3.61789419327959   14.43939402656516
H         4.93910318918923    2.75647639482507   14.76981677216311
C         5.77546907125682    3.47547628458294   12.93765100419691
H         6.15937014730009    2.48059527342633   12.72685954943634
H         6.50480980758384    4.20027351728446   12.58073371502950
H         4.84647413654946    3.59983080584564   12.38454949735550
C         6.86724475203536    3.60923379025798   15.20128903667382
H         6.70593021277999    3.66125822846431   16.27700800676662
H         7.47909015233120    4.45957910817033   14.90342212491269
H         7.41470257802890    2.69690529375548   14.97846798480626

