52
CSD_code = MOJYAN | q = 0 | S = 0 | Stoichiometry = C22H21BrN4O3Pt | MND = 6
Pt       -0.46846842815028    6.99676494883117    5.37154300244774
Br       -2.35333376899670    5.44068102539765    4.57102827649765
C         1.27668307661170    4.27775891356026    4.91323616554588
H         1.21516895966014    4.18525445842661    5.98898809817591
C         1.79500758196227    3.25406176774236    4.13543563907040
H         2.14054300362769    2.34546146315353    4.60153839353915
C         1.85798806583286    3.42143961453356    2.75918951850399
H         2.25759499168449    2.64470271749267    2.12557398998237
C         1.38985739831142    4.60160973944802    2.21059498674063
H         1.40393790003254    4.78579360694106    1.14825228047815
C         0.87143311020718    5.56811991526913    3.06831402793717
C         0.33022925030519    6.80878417622963    2.56752713255899
C        -0.11094744895918    8.44706337752848    1.32669497568660
C        -0.06936371331836    9.33672252224704    0.18685635150733
C        -0.66350235962497   10.59592130853001    0.27151223775139
H        -1.18817746195889   10.87905398925380    1.16882229314850
C        -0.53374241278986   11.44256117389077   -0.81536206266609
H        -0.97212910654930   12.42968836328541   -0.79325527581312
C         0.17793945346592   11.00644174041261   -1.92242833681843
H         0.31409715730005   11.64257435034877   -2.78293683444801
C         0.71833333129510    9.72602693190514   -1.90235012147770
H         1.27765886671519    9.33997834913437   -2.74322343232276
C        -0.47247860036973    6.19717247042732    7.26607794566825
H         0.54643959316184    6.04342063804157    7.62928766875586
H        -0.97753821114193    5.23006043383250    7.21276861875582
H        -1.00174812774921    6.81276742740189    7.99450003536603
C        -1.79332102013784    8.44168394783089    5.97959816097512
H        -1.44136169728333    9.07616435204577    6.79215724201558
H        -2.73181711448606    7.97150278328456    6.27907003998165
H        -1.96575213374723    9.05122961304936    5.08862298533368
C         1.19889644298107    8.17133095693404    5.94194816251186
H         0.97844388969671    8.75155382075605    6.83741314893363
H         2.00544787490323    7.46244529771291    6.14858188990993
C         1.52481726762720    9.03171234731789    4.80225761653126
C         0.94214288762821   10.29883262307177    4.66037188767439
H         0.28552710854295   10.65975894872041    5.43724781779017
C         1.17532222609576   11.07325698674570    3.54781313572387
H         0.71260552178981   12.04242865418764    3.44844975391938
C         2.00441061663027   10.60600577342714    2.52607787187513
C         2.61954198641642    9.35922639917511    2.66647553199250
H         3.26954537147162    9.01290650186845    1.87574097925302
C         2.39674170745395    8.59695778593148    3.79070753118814
H         2.89172810541102    7.63900563263029    3.89553854044443
C         2.23571958220522   11.37735216183928    1.30020388572434
N         0.82675728663484    5.41142465577583    4.39886081809707
N        -0.39005882516508    7.65247196080818    3.26310479029919
N        -0.67278788453205    8.68823782987288    2.47797110179012
N         0.59626239772443    8.90632457660270   -0.88029213775592
O         0.52523228528305    7.26025808520875    1.32468190487412
O         2.82976217951930   10.97699118912183    0.32478212576973
O         1.70658092170197   12.61753501826226    1.33305652272310
H         1.91463091505818   13.07631667454906    0.50507311786770

