55
CSD_code = MOJYER | q = 0 | S = 0 | Stoichiometry = C23H23BrN4O3Pt | MND = 6
Pt       -0.14082339034229    9.54860720147316    4.25460810408571
Br       -2.41815495867066    8.75215337818252    3.30564475307889
O        -1.63192650411956   13.17118634630822    2.81300183330241
C         0.71941357434797    7.68921163537033    4.13669108656816
H         0.96875111731005    7.25114945514260    5.10414135977391
H         1.63684856998788    7.74964160988448    3.54488104019880
H         0.02016878086736    7.02002169665022    3.63026091103611
O         1.15604094413084   15.17090929799969    0.36884932700379
H         0.30422501600893   15.24707357293071   -0.08995492503077
N         0.14739311265022   10.11951484853531    2.07468887805034
N        -1.64081491797560   12.48708343467889    4.89563167489751
N        -1.04611406212379   11.55493790917380    4.15430881456313
O         1.43434495294755   13.38321168342164   -0.93201684223351
C         0.62846988904049    9.40579242144324    1.07073786502473
H         1.13577178512100    8.48934951433924    1.33812496219762
C         0.49461767551889    9.78439746875262   -0.25590071890278
H         0.90787902821059    9.16570299021470   -1.03594662864759
C        -0.17936356820795   10.95794278579103   -0.55743621313907
H        -0.29792881709485   11.28561132050133   -1.57718608907579
C        -0.69545060452821   11.70651740531305    0.48379871349070
H        -1.24615661373204   12.61736068230678    0.31262834836180
C        -0.50589230819430   11.25299028904492    1.78546796389250
C        -1.04467965787518   11.97289399017224    2.91236954575603
C        -1.99005523689068   13.44435467033155    4.08442848303390
C        -2.68194374614203   14.66408870035147    4.44535446067950
N        -2.85722022710090   15.56495428374177    3.48199205924601
C        -3.49330390611278   16.67810241429729    3.78596597382444
H        -3.61331889981910   17.38027625431064    2.97181135158386
C        -3.98585498372719   16.95585276467694    5.05499615051690
H        -4.50224895285879   17.88235281783631    5.25015209631086
C        -3.79765662217421   16.01535849798251    6.05726466072840
H        -4.16612797930807   16.19371130964326    7.05646601190835
C        -3.13149570017960   14.84114705731118    5.75491443394898
H        -2.95726721233354   14.06943205896579    6.48621590863155
C        -0.71169937499339    9.13772207733705    6.18350371470171
H        -1.37380952560277    8.26996023786975    6.18206343844003
H        -1.27632430285883   10.01539365285948    6.51020902123766
H         0.10883808906807    8.95711386885501    6.87730426720078
C         1.66560321412564   10.35364303261420    4.98696758381663
H         1.43780045727483   10.88464566967389    5.91317366354629
H         2.39668775977503    9.56873568759559    5.18092106805369
C         2.11952162740518   11.27877424055398    3.94016883915238
C         2.90158451731337   10.83836011007605    2.86638839315565
H         3.23641717796984    9.81104791977248    2.84830383202206
C         3.23656550326976   11.68374714468623    1.82880306838602
H         3.82484947547528   11.31265027506112    1.00181708534563
C         2.82658954306564   13.01113444966518    1.83810022201229
C         2.09034138589505   13.47634204614501    2.92125512822307
H         1.78177385441330   14.51238469203632    2.94828903988412
C         1.75200176642470   12.62912038612821    3.95711497189643
H         1.19720629329497   13.01550730992830    4.80228396927753
C         3.13960664762338   13.93430031613444    0.68483905737256
H         3.48252648753700   14.90250532090486    1.04891635480447
H         3.88270408460822   13.48500335053700    0.02753350212200
C         1.84768974227890   14.11471644449277   -0.07111157532166

