56
CSD_code = MOJYIU | q = 0 | S = 0 | Stoichiometry = C19H27Br2O6PRu | MND = 9
Ru        1.90499304198159    1.73614947340965   14.24968453925827
Br        2.46492489152711    1.49134964753836   11.82752640114580
Br        4.29251928586351    1.41982798364095   14.91624052736652
P         2.73322262032698    3.76046406463192   13.82892021464274
O         1.51882909803347    8.84957786628252   15.77651417217408
O         3.40480458426571    7.86891961944176   16.61286989507183
O         2.75651408052840    4.65860806265722   15.18491697267927
O         1.56415659024901    7.24413669157235   14.07595745328716
O         1.90191964818983    4.74214967980096   12.83477153415864
O         4.18221034250006    4.08296141675421   13.18307491542788
C         1.41417702037943    7.50717065534145   15.44825089264912
H         0.41180389976341    7.16636262812488   15.73069170090313
C         2.58896670926480    6.82098120735495   16.17864013553886
H         2.28132823583827    6.19161770289038   17.02068451277535
C         3.26656021393769    5.97909757865365   15.09127334394132
H         4.35235199755642    5.96267315557735   15.22654264594758
C         2.85199844613994    6.72370563292533   13.80702378741471
H         3.57076273834788    7.53658228593915   13.61923583101536
C         2.76257236874014    5.83117154668070   12.56493334733607
H         2.34531120854024    6.39276792389653   11.72636777523637
C         4.10841300865289    5.16244936521414   12.26282593287949
H         4.12368506165015    4.76032795145372   11.24480907258678
H         4.96282336218424    5.82165399725464   12.42388597250067
C         2.77382823673942    9.12697573571430   16.38395525206955
C         3.64906477243507    9.98986241486659   15.47320506381130
H         4.64355350522439   10.06472021723967   15.90256646012985
H         3.20964108198371   10.97829462948831   15.38312066884739
H         3.71793745400264    9.54674935279597   14.48331550582655
C         2.52260324088199    9.82524379840944   17.72219084899846
H         3.47188948914007   10.06334685244897   18.19076403270489
H         1.95524520844570    9.16847403023491   18.37582784314090
H         1.95412818941732   10.73355786228762   17.55036224826420
C         1.93819109226372   -1.17027933134938   16.15641263774894
H         1.81690931870688   -2.04215041798602   15.51774706169304
H         1.57262643199958   -1.40442268928982   17.15622442874490
H         3.00421848218909   -0.94462248701779   16.23198130887323
C         1.20067387786058    0.00847797217442   15.60243738859052
C         0.50270704240369   -0.05368662287556   14.38795729357882
H         0.47185748187343   -0.98277287490372   13.82676529953575
C        -0.20883120702833    1.07554686720567   13.89843890182593
H        -0.76030242916497    0.97563068851075   12.97035303478216
C        -0.25393185487449    2.28210547365586   14.62039542247819
C         0.46029190712130    2.34262230673196   15.85231747645082
H         0.40918692296980    3.24671619763684   16.45122643058000
C         1.17969828957359    1.23847711918650   16.32513657125808
H         1.69378213588019    1.29301586764967   17.27977048815656
C        -1.09530647081783    3.45914919352055   14.19027086506722
H        -0.61889523687541    4.37039691469384   14.57488685054967
C        -2.48156823129718    3.32288523109691   14.83304999971208
H        -3.09753033923125    4.17934146929878   14.57115689093172
H        -2.40587414369589    3.26969902941362   15.91790903139624
H        -2.97620194312618    2.42046012084089   14.47760272123842
C        -1.21247282698402    3.59467788287609   12.67290712959990
H        -1.66362821745788    4.55284162638090   12.42864786236953
H        -1.83709729785365    2.81082024925978   12.24995156914249
H        -0.22914241722181    3.55613918274367   12.20770383597841

