63
CSD_code = MOKCOF | q = 1 | S = 0 | Stoichiometry = C20H39N3Rh(1+) | MND = 7
Rh        0.60890682511161    6.05937744867028    3.59771249758911
N         2.36719696974091    6.23271784701210    4.76452196373830
H         2.10237408882427    5.93491755908948    5.70323398698968
C        -0.14419060970919    4.48410918625963    4.79037239303428
H         0.67022605860675    3.93565647182876    5.26759376191095
N         2.58634340669871    5.61504506527564    1.99793532845802
N         1.47798122656753    8.24736010388052    2.84518898849107
C         3.44086815964854    4.13024149880113    0.11695325131410
H         3.49054994309228    4.91643899734239   -0.63132766156166
H         3.19744783234587    3.20290859168940   -0.39401783213065
H         4.42556430015282    4.01307404758139    0.56240401449577
C         2.85183659772263    7.62299661615759    4.86613631604227
H         3.84405967850746    7.68919628270424    4.41737006020969
H         2.95969643512862    7.91647042195166    5.91526325934339
C        -0.48517636459585    5.72365142620069    5.37489964360343
H         0.07651194403956    6.02305422686901    6.26344485548083
C         1.90479756986707    8.62712585289078    4.20453607134222
H         0.99915363271561    8.71736255693989    4.81355064291123
H         2.41923403785241    9.59807521413943    4.20557379470041
C        -1.86621858024386    6.32907297267440    5.36410494975966
H        -1.79381229448887    7.35546930738450    5.73044172017381
H        -2.50041490908925    5.78219894986276    6.06872484760852
C         0.47718339487403    9.23557909694616    2.36130266518335
H        -0.37846414186969    9.14203666388005    3.03942993416786
C         2.66565736261859    6.81066029913973    1.15457176240166
H         1.82360964451941    6.77568505750357    0.46187297537445
H         3.59148487765252    6.82135623077966    0.56100819400164
C        -0.89605724373111    5.31262668038235    2.25696708095958
H        -0.53268706190564    5.43294386115306    1.23614153191470
C         0.01484568132241    8.91664080746755    0.93764963344994
H         0.71250997706231    9.29948032523683    0.19720382700459
H        -0.94558523716994    9.39224303337995    0.75556211724629
H        -0.09625700466322    7.84733226850671    0.78470471611846
C         2.35784132450954    4.41126710708098    1.16435407537674
H         1.42408112947372    4.59797614207597    0.62402710213136
C        -1.30969620667488    3.90125183861499    2.60325300428355
H        -0.71190688085453    3.20408730334048    2.01741580914537
H        -2.35076022428890    3.76092880528290    2.29665593340356
C        -1.15326168752843    3.58450324982642    4.10361101758830
H        -2.11050479777804    3.68104768733717    4.61715331944559
H        -0.83537065670463    2.54719042825240    4.21317967451140
C         3.40609697664794    5.28969941463218    4.32336880306042
H         3.01663301192774    4.28019061415680    4.46541622814607
H         4.31052238082944    5.39587040263183    4.93792277739293
C         3.77697449213700    5.48430636992151    2.85030113620951
H         4.40804426485515    6.36797739696367    2.74189412222272
H         4.39023577154041    4.63121130361543    2.55116802795791
C        -1.42577474183944    6.42413581277203    2.89172465831199
H        -1.42634162887869    7.36511254036870    2.35543823164466
C         2.14961132884151    3.18513445492251    2.04907643127785
H         3.08845158363460    2.81877059126120    2.45643317321438
H         1.71190421740688    2.38273433535960    1.46150572821423
H         1.47300783281810    3.43339369741551    2.86453700589788
C         2.62075791372663    8.13649587504849    1.92653034267701
H         3.55290338512455    8.27293849553251    2.47607967916437
H         2.59561521465247    8.92992343658149    1.17649062777069
C         0.94205394323775   10.69749825642701    2.41144769407602
H         1.91085985770414   10.83286590387027    1.93644173051690
H         0.99563908808907   11.07581743706724    3.42846924777621
H         0.22173160185976   11.30819102905366    1.87429948511458
C        -2.48831293838984    6.33046164749066    3.96282366834932
H        -3.07975012131237    5.42934018214384    3.80482573224873
H        -3.16366163197126    7.18177327137146    3.87072424154241

