70
CSD_code = MOKCEV | q = 0 | S = 0 | Stoichiometry = C22H42Cl2IrN3 | MND = 8
Ir        9.11313806470099    1.46021063173474    6.16102365039965
Cl       10.72936650530947    1.02776498346830    7.78377292389884
Cl        9.34903865921306   -0.63272741404444    5.14577129661786
N         7.55733595500159   -2.02440288583739    8.52644577704049
N         7.79948275504698    0.54397934367991    7.63405514025842
H         8.32827383419772   -0.14576921492297    8.20885995942616
C         6.99074853824832   -1.74684223570857    7.22635656097816
H         6.07262246267649   -2.31920950047035    7.01739490683504
H         7.73486110107426   -1.99344857598443    6.47136985261590
C         9.76067580519587    2.54892577830571    4.36780887013299
C         8.31967995750055    2.44474055525883    4.30134757341741
C        10.68417924528394    2.08203814414517    3.28967147617729
H        10.63121795778295    2.76264845922678    2.43769165716178
H        10.40145813800624    1.08704491882400    2.95199596537657
H        11.71166114992036    2.04255896308493    3.64193427647068
C        10.08263889888343    3.36066793182830    5.49353589691227
C         7.77396286392147    3.18575678607526    5.37877295980624
C         6.60504044074739   -2.02579314430109    9.61697262276220
H         6.35043657202991   -3.04340404469318    9.95170903535570
H         5.67394716654618   -1.56831416002808    9.27660714891021
C         7.57263304006155    1.81379409282667    3.17303650088566
H         7.75864385078595    2.36422591958530    2.24983830021729
H         6.50273125418361    1.80757011358419    3.36487921655667
H         7.90620278364085    0.78732762055189    3.02554882265340
C         8.54136724340283   -3.09981299031254    8.59319509192949
H         8.71941505287285   -3.26783130976310    9.66105864074346
C         8.85764959249884    3.70695716025191    6.15642685910591
C         6.67882371206839   -0.24432217540881    7.09124869167480
H         6.52942538708332   -0.01359774180584    6.03373912610814
H         5.75779530915338    0.00687590204714    7.62327781027952
C         9.86406214592934   -2.66989955330671    7.96583147657285
H         9.78245727331686   -2.56770283445608    6.88839565676727
H        10.62989720246981   -3.41078567874277    8.18073885808950
H        10.18264728530879   -1.71439628886309    8.37174856605764
C         8.77118638704424    4.67873366593806    7.28829803455921
H         8.88984954902988    5.69756526557172    6.91393921932543
H         9.56458598109848    4.49234183535611    8.00923973330485
H         7.81486258077073    4.61473119168014    7.80206152272292
N         7.75436609784477    0.00402061650833   10.42853090638941
C         6.83381003792351    0.98596047138343    9.90712625469389
H         6.66458862178273    1.82079719645822   10.60473109882489
H         5.86382830598272    0.52031621860589    9.72938698935557
C         7.38823586925167    1.57485024736585    8.59388966905964
H         6.64308447043541    2.22956390955660    8.13827306935306
H         8.27881510247848    2.15600898418579    8.83942736187070
C         7.15442763018165   -1.24882898417607   10.82867807598247
H         6.33599894552002   -1.12237497777459   11.56015570864856
H         7.93325389687508   -1.84777516883252   11.29854168105789
C        11.42666791139722    3.88067249317448    5.88231601721960
H        12.20738356512110    3.45025712571499    5.26163879552689
H        11.64851938733636    3.64213091780424    6.92157016476980
H        11.44467072984959    4.96558863885712    5.76904205006375
C         6.31879587726955    3.46393343497256    5.57750845834892
H         6.13486195547904    3.94733982906085    6.53381534661785
H         5.72705541889604    2.55055709886254    5.52743843328673
H         5.96716796135748    4.13230027002596    4.78974231249502
C         8.77291410993041    0.54625872225035   11.31986156550578
H         8.95566443343889    1.57094130692604   10.97971607877812
C         8.05010841748952   -4.41654877525844    7.97706913493645
H         7.96111184885958   -4.32484685180556    6.89786322999127
H         7.08012382981413   -4.69827919927940    8.38417558122576
H         8.75671596029150   -5.21280172299333    8.19557291155745
C         8.33343511334878    0.60571719927136   12.79029063940217
H         7.36194096401139    1.08907008369087   12.88239073232292
H         9.05507381769478    1.17663923997783   13.36850562583838
H         8.26531944810637   -0.39135061362588   13.21800215809959
C        10.08885844030392   -0.21249506493623   11.16558787110823
H         9.98117281281714   -1.26147748969832   11.42595780598686
H        10.84125211888142    0.22525997747665   11.81621951166165
H        10.43447519799788   -0.13480464811288   10.13907508191202

