63
CSD_code = MOKDAS | q = 1 | S = 0 | Stoichiometry = C20H39IrN3(1+) | MND = 7
Ir        0.60982914086634   10.05620834884919    3.56532007075337
N         2.40568216434424    9.85145540529296    4.76376898645298
H         2.13632593506373   10.10686730002566    5.71297729061385
N         1.52523296979298    7.91760436283518    2.76791013151065
N         2.59774321813056   10.58900556358985    2.02471959509470
C         0.52511422019805    6.94586493930686    2.25101254792378
H        -0.32517135261115    7.01294527119980    2.93708344251892
C        -1.88247652218838    9.81909083959391    5.35254159072248
H        -2.50841008730928   10.40060234120210    6.03528007518800
H        -1.83416894456319    8.80433121252904    5.74975511202954
C        -0.89219258572208   10.81787329352135    2.23950027469032
H        -0.58912029841949   10.70597924554614    1.19820693867235
C         0.05236730512374    7.31884820070707    0.84451668445571
H        -0.07319339403735    8.39145233411221    0.73734307748730
H        -0.90330455721192    6.83963300510712    0.64843176065358
H         0.74991584855031    6.97452526669121    0.08526980965019
C         1.96965425143943    7.47939816961554    4.10252360771480
H         2.49694255453411    6.51734962421440    4.05342376333720
H         1.07191089588301    7.34570891171049    4.71055215670685
C         2.65986320647643    8.07621754916907    1.84537935264718
H         2.63850678199471    7.31231476926097    1.06530531408813
H         3.59723512072546    7.92730360278222    2.38274031040734
C        -0.48564171004407   10.39075632130645    5.34886615724102
H         0.06170082422149   10.10662602396505    6.24912179664401
C         3.42815915608860   10.82655530429500    4.35697565248907
H         4.33966414002860   10.71428513720783    4.95901105293986
H         3.02173044150484   11.82165811324442    4.54004623418101
C        -2.49420062608064    9.78831348047639    3.94684885858128
H        -3.09335467671448   10.68034633360270    3.77046652199004
H        -3.15977861423045    8.92943867560225    3.86363218611124
C         2.68587705714064    9.43240365776306    1.12950077256296
H         3.60757713724096    9.45617528173356    0.53061069840928
H         1.83967641020490    9.48907958179391    0.44374709187940
C        -1.42271338328906    9.69108684081005    2.88022015235513
H        -1.46702863105361    8.77001428613250    2.31263229869520
C         2.90663222776539    8.46419955061043    4.80603767309798
H         3.02006769615006    8.12534325690883    5.84035806915496
H         3.89938859796970    8.42745801402258    4.35473151211740
C         3.79086796252972   10.69705608116209    2.87518897149229
H         4.39486701929044   11.56691351975403    2.60769045316738
H         4.43101224520317    9.82563906988365    2.72720517113528
C         3.40823361320780   12.13820533800946    0.18034063290134
H         4.40489776160373   12.22201000180895    0.60688844222882
H         3.16573191413421   13.09087756084012   -0.28192287864913
H         3.42920271027290   11.38704636443677   -0.60440261472090
C        -1.31938527209509   12.22740171743055    2.58982224816538
H        -2.36051177609135   12.36468706087080    2.28486543033025
H        -0.72299165561700   12.92654744941652    2.00574355434576
C        -0.13645833351898   11.63864996957641    4.75968904165834
H         0.65915761721070   12.19147761260692    5.25932378273847
C         2.34912071695634   11.82303928687121    1.24285020751215
H         1.40188414683718   11.65414707257150    0.72211031785015
C         2.16452160292401   13.02469348698971    2.16449691989145
H         1.48099896909812   12.77607656878565    2.96888099593353
H         1.74653327736094   13.85105964723271    1.59625662713436
H         3.10919651005871   13.36112884151664    2.58344869071645
C         0.99228465675800    5.48432488801744    2.24122934600440
H         1.95440658733079    5.36803479064789    1.74766291922322
H         0.26535101766835    4.89252721156448    1.69221782220760
H         1.06019833500825    5.06921567920390    3.24278283801265
C        -1.15774613397681   12.54042661779637    4.08950767580988
H        -2.11079978715428   12.43593659413744    4.60766951190200
H        -0.84491562296261   13.57835815253015    4.20158527124072

