93
CSD_code = MOKGOK | q = 1 | S = 0 | Stoichiometry = C38H48N2O2PPdS(1+) | MND = 4
Pd        7.07520923552048    8.60510301661325    3.76899944251076
S         7.11497755128702    5.89313786459139    2.85034990463754
N         7.86580034945349    9.61882387824811    2.16981676739964
N         7.58810427912944    4.71053021102692    1.81671301251213
O         6.57028652229433    7.00717406047164    2.10870697740142
O         8.17173890436952    6.22204797727660    3.78040607919438
P         6.23831029763837    7.38675282484802    5.45020740657334
C         7.15483902360065   10.26959619661949    4.93552530258743
H         7.85424793005213   10.99367267807628    4.51466454629148
H         7.45260402922956   10.04553609036217    5.96197013733951
H         6.16132673984500   10.72171348379070    4.96675328832226
C         4.93465132928096    8.23012934199048    6.39205154318687
C         4.83456050153772    8.27643693648661    7.77509706140094
H         5.56756181653090    7.77308867175039    8.38927582737358
C         3.79502946403123    8.98129693897724    8.36052089547563
H         3.71497356713721    9.02187414699601    9.43614826752789
C         2.86354524719435    9.63595128090719    7.57211965020633
H         2.05738054636023   10.18344681143576    8.03553853525208
C         2.96941457974236    9.60175811763437    6.18874447259288
H         2.24734952518542   10.12344569274595    5.57896542941898
C         4.00761966562285    8.90722602110341    5.60028379614408
H         4.12708012880270    8.88178270620284    4.51629218888643
C         7.45435248784774    6.75363855385693    6.63494557366358
C         7.16022434056815    5.75407940179574    7.55707485544654
H         6.17446925127593    5.31006463090783    7.58416871373689
C         8.14033517689564    5.32578550638894    8.43514139574783
H         7.91506709229304    4.55295052968459    9.15470540310096
C         9.40862893379915    5.88332155355147    8.39068369466489
H        10.16826829409155    5.54296352427950    9.07774269257823
C         9.70546898932028    6.86963229093322    7.46293366540565
H        10.69708521176634    7.29476327449176    7.42696106401264
C         8.73092345385926    7.30553843182357    6.58389177814665
H         8.94433496016641    8.06823685558831    5.83767431674489
C         5.34836243904528    5.87447549098845    4.92057165220503
C         5.74917264136728    5.20082059959203    3.77181389254214
C         5.04625796803725    4.11446953402071    3.28905569520888
H         5.36250380321228    3.65256402521437    2.36789719832462
C         3.94717042522596    3.64437771306836    3.99021995898853
H         3.39939767844897    2.79030158686366    3.62437356396557
C         3.54854143869995    4.28484336280316    5.15357561589627
H         2.69161096973068    3.92325036855718    5.70094378687708
C         4.23059879214976    5.40034939200760    5.60772944988307
H         3.88951075035284    5.91981805567581    6.49181704350191
C         8.27159210373104    3.61531830016784    2.50977180082885
H         7.84446782580856    3.63216572614177    3.52112460163087
C         9.78294384210095    3.81118618093513    2.63650943912203
H         9.97707637930837    4.78095490038864    3.09746347189699
H        10.24130951822927    3.79191198572458    1.64598168133095
C        10.37873322380361    2.69542716368124    3.49261451629200
H        11.45874016920701    2.83031103250136    3.56579400031865
H         9.96453879952932    2.75643755984951    4.50141909278766
C        10.06445281309911    1.32889030847717    2.89189177547911
H        10.53963205200525    1.24387083846619    1.91247637673513
H        10.47104832617794    0.54244602849266    3.52865429983439
C         8.55755936559413    1.14486156719649    2.74184961498372
H         8.08751704496655    1.16276603103893    3.72764662877690
H         8.34378822722840    0.17729657314654    2.28565585652353
C         7.96661274853025    2.25661439816616    1.87752133183200
H         8.40652718399175    2.20398275818982    0.88061795972453
H         6.88885495025110    2.12125352140414    1.77576477354514
C         7.93563763366672    5.04437251157190    0.43182580440832
H         8.43855939899501    4.16424761396758    0.02029543078354
C         6.66227750999267    5.29501728124896   -0.37745367765190
H         6.13425686769150    6.14805274088845    0.04943829237541
H         6.01177470495959    4.42096923948260   -0.30713728715926
C         7.00959632819367    5.57718265256273   -1.83743157527499
H         7.48876039785973    4.69854862643883   -2.27481053517582
H         6.09432490165552    5.77150761933466   -2.39804358936998
C         7.95125330081618    6.77252390882858   -1.94238139533700
H         8.20089581989191    6.95755737224700   -2.98804289157617
H         7.45336492582476    7.66253692696500   -1.55023264147753
C         9.22309021962991    6.51374937218076   -1.14185442439147
H         9.88880128570986    7.37629935166116   -1.20636858022370
H         9.74862826871414    5.65309691512473   -1.56114478464612
C         8.88192145115898    6.24237983949100    0.32104533371002
H         9.79096361955006    6.05388783144858    0.89474716470824
H         8.39021082003828    7.11927705001615    0.74264103422269
C         5.57518065734191   10.12648094221855    1.61479392154795
H         5.22671573902418    9.11859873832837    1.88509039060621
H         4.97096851565896   10.49990681304137    0.79222822090627
H         5.44965309342521   10.78506889510713    2.47993052198602
C         7.02293638779878   10.06746035010868    1.23739151494651
C         7.48776428399127   10.45213066049594   -0.01398637574461
H         6.79704484648482   10.81128437190100   -0.75989365813594
C         8.84306705787112   10.36506137386027   -0.28627274456237
H         9.22611337451316   10.65617252318814   -1.25207964895155
C         9.69905571879215    9.89662166673614    0.69645889054542
H        10.75892053804094    9.81784012980843    0.51512258105597
C         9.17485196628512    9.52126883535230    1.92761916710147
C        10.02964844474154    8.99602147749084    3.03961136481288
H        10.01150285241743    9.69878862190376    3.87823567117636
H        11.05846971367759    8.86854683706878    2.71303056596244
H         9.64139844999868    8.02827640569366    3.38939917425125

