87
CSD_code = MOKGUO | q = 1 | S = 0 | Stoichiometry = C31H53OsP2(1+) | MND = 8
Os        3.71668046889591    3.60033372328514   11.76153105362615
P         2.86335879184018    5.63520019904998   10.74391773141362
P         3.29581848153925    3.92573003605556   14.13492108216257
C         2.13365786942345    2.61536193650690   11.44597028487320
C         1.21375686515324    1.72949395563343   11.18966397862674
C         0.73399513393452    1.29848789782689    9.86357999037967
C        -0.62330035170437    1.06206604839547    9.66643102396770
C        -1.08550943876991    0.66012534396539    8.42716532405648
C        -0.20065933325372    0.48039177723422    7.37666310937514
C         1.15270963732424    0.69804795448215    7.57249430332308
C         1.61995734291777    1.10416985266382    8.80880783964726
C         3.66908429874358    7.24912534568214   11.25589350316256
C         5.18757637432306    7.21650591197035   11.12514719228066
C         3.28407323687969    7.64039691575523   12.67775362227132
C         1.04821129947757    6.09647684253415   10.93031058765954
C         0.61806259198255    7.48646346587407   10.46019651236732
C         0.11775807232424    5.05784724520668   10.30554568507084
C         3.28720227274348    5.56728887439029    8.91096352406957
C         3.13334911603722    6.84936999912561    8.09656436869570
C         2.54954567942708    4.42269635418159    8.21774377755940
C         4.68890916185149    4.98127257456040   14.88932326548014
C         5.85372194248555    4.16487034365855   15.45145086087991
C         4.29569739940957    6.03896836066777   15.92018555473985
C         1.65993485784370    4.74177990146673   14.59475180092757
C         1.24403644386825    4.85151465270036   16.06211522524419
C         0.52135888822840    4.07543192214455   13.82526846073289
C         3.42758467976994    2.30243762154602   15.07357674746359
C         3.13766672708744    2.36744389525558   16.57228477797097
C         2.60770954256814    1.19052342888804   14.42829461884546
C         6.09092329848441    3.55998700852931   12.00015610384606
C         5.82695368381411    3.88219332630993   10.67126147150755
C         5.53340324279282    2.26976833078983   12.25705799155296
C         4.96502724756859    1.79050928860291   11.05713227497808
C         5.08483956706993    2.81109039441219   10.08510076154355
H         0.66579839786086    1.28488632699020   12.01509429818663
H        -1.31658238407791    1.20196256213054   10.48293144081947
H        -2.14003774428325    0.48114688185242    8.28254686838441
H        -0.56343522233961    0.16167813410914    6.41182690241870
H         1.84836766792534    0.54334272901060    6.76146745341694
H         2.67804041901974    1.24455674049719    8.97134488441520
H         3.28111661168700    8.00237960734610   10.56357219432233
H         5.59877057958117    8.18793383754243   11.39502636857877
H         5.49945454649281    6.99982526981479   10.10635369634365
H         5.62021284664998    6.47628844669789   11.79513505977144
H         3.81780031085275    8.54341943644738   12.96890279788262
H         3.55580645516809    6.84521589145818   13.36492655878652
H         2.22033866347819    7.83593820270699   12.77542013011453
H         0.91859175789763    6.05184062258215   12.01768971521631
H         0.68367550761284    7.58305743392093    9.38180249111995
H         1.18250009382298    8.29324865669775   10.91543321096573
H        -0.42689440206973    7.62360859883451   10.73414418389962
H        -0.85494895865191    5.09705368284672   10.79035436927172
H         0.51652640607190    4.05403772437882   10.41082937068467
H        -0.03428141015623    5.26157521614780    9.25039055853055
H         4.35438734843311    5.31625886887849    8.92272220072892
H         3.52160961714722    6.66433284477064    7.09582195161336
H         3.68888799516518    7.68465974310243    8.51292755033143
H         2.09176174245422    7.13451636867490    7.99163106978518
H         1.56186257329171    4.73453162828956    7.89408123675656
H         2.43507202555023    3.56842440702397    8.88345536386781
H         3.09830624287767    4.10608099593722    7.33286729048978
H         5.06910965748389    5.51872827769602   14.00993815117590
H         6.68236980510876    4.84058199993750   15.66068723239758
H         6.21261659908358    3.41194654487234   14.75609117430373
H         5.58878947989344    3.67512036621054   16.38387719708049
H         4.11145138406031    5.59271151950958   16.89368755796099
H         3.42647070096077    6.61743210589162   15.62241270906208
H         5.12836236230659    6.73123980260517   16.03844245430618
H         1.78775022807843    5.75459582050853   14.19369501906070
H         0.47459748828038    5.61797869405448   16.14007920824655
H         2.04988972336005    5.12510810411813   16.72961371973164
H         0.80725156743352    3.92144065003055   16.40995291909881
H         0.25564513346859    3.12606025230047   14.28090857561770
H         0.80561851464018    3.89855918322659   12.79010376081299
H        -0.36110100694388    4.71088996681367   13.85308178832612
H         4.48316894239566    2.03865741031533   14.95080569126426
H         2.07383452260135    2.28166411601681   16.76660087140634
H         3.50025772325179    3.28221666273578   17.03003194452879
H         3.62735306972337    1.52812028544826   17.06349442507481
H         2.85401660269306    0.24071407728788   14.89915094755731
H         2.82232833649045    1.11575659866222   13.36383731552311
H         1.54311490550631    1.36159570264922   14.55720994137445
H         6.74341983421226    4.11096176242315   12.65899367609840
H         6.23363835699882    4.72485175052288   10.13567880265991
H         5.72875667223666    1.66260954668066   13.12814844859701
H         4.58469840357503    0.79410252704799   10.89135671702067
H         4.89098821353320    2.69918468438283    9.02899612471875

