87
CSD_code = MOKJOL | q = 0 | S = 0 | Stoichiometry = C44H32BrF5O2P2Pd | MND = 4
Pd        1.03842900668346    1.03346891373457    3.96997561174664
Br        0.99961520380839   -1.34858087167364    3.72732468548158
P         2.62075745366005    1.27317224693314    2.33261024851833
P         1.06308063503601    3.24285101027602    4.42769674490119
F        -1.69756793621811    0.65700272591720    3.41693745771020
F        -3.98639273088981    0.30049178896337    5.00179082610680
F        -3.71747647526840    0.34552145224637    7.71728706729861
F        -1.27120856579283    0.71781884705133    8.85255279388290
F         0.95443975610309    1.03135234592698    7.22132028483710
C        -0.37695932910996    0.79121815936406    5.31833626571147
C        -1.63420338960375    0.60363489412052    4.77783792299859
C        -2.77115816608570    0.44090444234040    5.55110169970131
C        -2.63302064649779    0.46874374523318    6.93693436348657
C        -1.38178922470478    0.65649598895806    7.51686472267783
C        -0.27360447158417    0.80778607497394    6.69557623240592
C         3.58757725318058    3.88064772354494    2.62440696351194
C         4.56552245954397    4.82969700486295    2.97280310277679
C         5.85281168432517    4.41993951706127    3.28819609559710
C         6.17408940655114    3.07430739387883    3.24506191146864
C         5.22204057821947    2.13466370682909    2.91266006342053
C         3.92262385713675    2.52819154374897    2.59569162303711
C         5.07168476334798    7.12953636837371    3.31669370238843
O         4.14123927428429    6.12269478247861    3.00273142109654
C         2.27270042191760    4.43061680775355    2.21621610969691
C         2.25424837482470    5.16797576968005    1.01840453653848
C         1.09438014369516    5.81480110193416    0.61575360299542
C        -0.03339105445142    5.76540957505495    1.41645445732222
C        -0.02833560959168    5.04970501469429    2.59452641888791
C         1.11984673375055    4.36983970957615    2.99947716119770
O         3.41742248726201    5.16971073039806    0.31546557334392
C         3.48550551751756    5.92036418630062   -0.87222688589690
C         3.57475447635332   -0.19937754581546    1.85458051486636
C         3.69154112788644   -0.66488071958157    0.55264295489320
C         4.41275872386115   -1.81989906637880    0.30020406992798
C         5.01003464739483   -2.51382819288153    1.33787639213762
C         4.87920727554232   -2.06272094787168    2.64217872005321
C         4.15796330936946   -0.91484742623649    2.90121405524587
C         1.80421815279256    1.83263495929258    0.81381168976948
C         2.50635442256211    2.30471440110465   -0.29099971681253
C         1.81223201830510    2.70907595882594   -1.41580905827419
C         0.42651829122369    2.65851345536073   -1.43765055663422
C        -0.27361238983360    2.18837976479567   -0.33876669907037
C         0.41428991565796    1.76807221152499    0.78496415724592
C        -0.29366744554995    3.82566777447944    5.48968478452801
C        -1.59893445533417    3.61666164663542    5.03989635023854
C        -2.67494544579242    3.90539234397510    5.85645048935222
C        -2.46025971249344    4.38144799929320    7.14070468387461
C        -1.16830564066416    4.57002977895516    7.60024104373088
C        -0.08594120347667    4.29192871540759    6.78267816660993
C         2.57323053381592    3.58633272624973    5.36686797027438
C         3.33825281689561    2.50503107508472    5.79355013977762
C         4.49974277376755    2.72456536231393    6.51089695330116
C         4.89155531455904    4.01922553892723    6.80971892989710
C         4.12350120611439    5.09679544280753    6.39540885697015
C         2.96574739073618    4.88665778982579    5.67052927602825
H         6.61111278415264    5.13580249307296    3.56119652419528
H         7.18038051662673    2.76098453211031    3.47937403382537
H         5.48970235592574    1.08965137543601    2.88497684026150
H         4.51680590077586    8.06560410870286    3.27114647995305
H         5.89167532659809    7.15988401531009    2.59228014935566
H         5.47988932824356    7.00008875488645    4.32403613172337
H         1.06214713103285    6.37154447367094   -0.30667003525650
H        -0.92518916201795    6.29195305972870    1.11147011314504
H        -0.91077701905258    5.03890102442809    3.21389294365890
H         4.49849151525543    5.78288456967378   -1.24765429843134
H         3.31030690016197    6.98460133494557   -0.68529485424012
H         2.77112114503957    5.55849676751954   -1.61823228216526
H         3.21009032948463   -0.14060794748273   -0.26017464424647
H         4.49825840064643   -2.18363230839227   -0.71325240278650
H         5.56432853764515   -3.41763295740775    1.13359204526989
H         5.32368749245155   -2.61594595036576    3.45560157730607
H         4.01516696741593   -0.57613638196129    3.92305775239348
H         3.58557065784753    2.36421446157498   -0.25604406179777
H         2.35320347455671    3.06141980253052   -2.28279428817471
H        -0.10851073982243    2.98210262208427   -2.31858968271481
H        -1.35197569007739    2.14356545272731   -0.36101590601467
H        -0.12578578889272    1.37580427729370    1.65133850153765
H        -1.76398391407120    3.20826687056967    4.04969691262094
H        -3.68108622840228    3.74278268193357    5.49938168654851
H        -3.30007501402989    4.59004404056317    7.78577743142448
H        -0.99874472551510    4.92366256784233    8.60619736043142
H         0.91863158408306    4.42214879630870    7.15803179697664
H         3.01112034375227    1.48348553876759    5.56584570662749
H         5.09713437757167    1.88869939929962    6.84196645270648
H         5.79724565772043    4.19062396693377    7.37255333576184
H         4.42735716999859    6.10383859148984    6.64362043162919
H         2.36695687029310    5.71994421946374    5.32805129563675

