51
CSD_code = MOKRUZ | q = 0 | S = 0 | Stoichiometry = C20H24MnO5P | MND = 8
Mn        1.92643003527248   12.75313422813154    6.05145767753057
P         1.62434401553585   14.48124519322238    7.39933642249279
C        -1.41970490677016   13.37930852960290    6.29955998325926
C        -0.36094532155008   12.48583022099923    6.09336927967152
C         0.12669165911650   12.26125332856792    4.75473172403504
C         0.35876349796876   11.59750777537838    6.96618499494012
C        -1.98434617800424   14.03526912095162    5.22083308680465
C         3.51722196422426   12.33200912448192    6.69907141537834
C        -0.46631162389599   12.95043867224260    3.68556424397789
C         2.73277912504298   13.70111118626229    4.79620184344796
C        -1.50790306447470   13.82662136317946    3.92464737899695
C         1.12648552164945   11.22722843582516    4.82624070471692
C        -2.12047850447246   13.73866504171331    7.57625546464908
C         1.16460174425221   10.76517952775700    6.16739919091854
C        -3.11967058542469   14.90735383133261    5.66944045205618
C        -0.14910775754761   12.87252865707623    2.22214588777084
C        -1.99894952881740   14.42542654411037    2.63877497302536
C        -2.91589101596655   14.99596142056553    7.19074947804975
C        -0.87011807925473   14.10228627629342    1.64508869219266
O         3.23851764537494   14.33556528838720    3.97320128020537
O         4.55304310611954   12.06349902841062    7.14200539234446
O         0.57637220636057   15.65534399572834    7.07452937392428
O         1.08548104462188   14.33949174247744    8.91021957852478
O         3.04691979941939   15.25554989498316    7.54688359311223
C         0.63002605187483   16.25267730832158    5.78687771322671
C         1.71936952878712   13.40401989929351    9.76886839453582
C         3.16504953625193   16.42092970974645    8.36227908468081
H         0.08536541113188   11.40049202854266    7.99486821310111
H         1.51895049721661   10.69014028866878    3.97175459608479
H        -1.42437208369133   13.93153512168396    8.39317327490049
H        -2.78640433837185   12.92292756473359    7.87877974442220
H         1.67893555208933    9.87262874117270    6.50564357981049
H        -4.07285389167410   14.42840290518974    5.42361819595981
H        -3.10880560383075   15.88722268320566    5.18993577667414
H        -0.54986746109805   11.94454722922623    1.80157431775844
H         0.92464856828870   12.89171598205619    2.02927998369649
H        -2.18552318910708   15.49725966265038    2.72091572720283
H        -2.93721992379766   13.94695317669768    2.34153964708423
H        -2.31554978977643   15.87633877481954    7.42456550629597
H        -3.85868828165866   15.07109183749754    7.73102715806238
H        -1.24483790353054   13.92574051577895    0.63810179329973
H        -0.17236800499418   14.94058830926981    1.60516987655491
H         0.08844344596369   17.19560143915769    5.86051079186383
H         0.14944460225792   15.61236812737430    5.04396933292678
H         1.66251122851529   16.44150691586346    5.48222976087163
H         0.94255830459304   12.89243976078873   10.33931719591898
H         2.38582558068025   13.92940080672298   10.45529334345460
H         2.30425015340088   12.67511733645303    9.19792890851839
H         3.94579946878574   16.24303393510062    9.10249568863254
H         2.22233565705572   16.64550936102386    8.86638930596343
H         3.45055208584547   17.26350215129264    7.73120097648171

