58
CSD_code = MOLPAF | q = 1 | S = 0 | Stoichiometry = C24H28ClO4Ti(1+) | MND = 12
C         5.41151804625451    6.74207792781304    5.81392063526096
C         4.33373944148769    6.08619396925404    6.46757710974779
H         3.87126690479476    5.16117218138985    6.14949851037917
C         4.12681551202726    6.70489318696119    7.72074228943788
H         3.50122837597355    6.32273448416768    8.51594933122399
C         5.00641552336591    7.79997761880207    7.81608671800053
H         5.16785884555918    8.42014152108455    8.69078430349656
C         5.80699230363146    7.81429049903077    6.64421050217884
H         6.64899503311974    8.47433757116588    6.48657591012694
C         6.04599211931489    6.30487028138840    4.51586738531220
C         6.47860737349868    4.83729507818738    4.62894848882749
H         5.62827809415566    4.18127219094292    4.79227904354826
H         7.16572635862856    4.71939819975547    5.46300985108854
H         6.98456443939583    4.52381901146545    3.71966481736692
C         7.26702656271204    7.16497540810901    4.17632804000586
H         8.03996077834858    7.03120210248558    4.92893377253359
H         7.00657113101188    8.22155244929202    4.12246612822746
H         7.67561180150754    6.86369470531319    3.21495073041313
C         5.00559292075583    6.42005797663437    3.35200576208267
H         5.45740519062626    6.08157183540925    2.42649513319344
H         4.14207849620020    5.79166846817513    3.59417641285706
C         4.56002617988152    7.84558930944267    3.29100908098002
C         4.92104395142437    8.80146409056915    2.29571191532653
C         5.58149526607874    8.52870597476714    1.06441671008659
C         5.87511047260744    9.58639508520351    0.20978389472974
H         6.37048538409159    9.38371946710397   -0.72426326110920
C         5.55771672542157   10.90391691532937    0.51924372727669
C         4.89617523857605   11.19336454017970    1.75666188955166
C         4.58583861218738   10.15326416501425    2.58812336048223
H         4.09768485557311   10.33767038120535    3.53486067579083
C         6.49686785078497    6.93325187028196   -0.46695365100964
H         7.48326824266516    7.39486379364686   -0.55518448454744
H         5.86920838711133    7.22580786623509   -1.31158456539653
H         6.60682521189036    5.85031040043875   -0.46138056476422
C         6.46876783118199   11.79566269996119   -1.48931369395047
H         5.88058890720072   11.17481675126903   -2.17038432599408
H         7.46704991891785   11.36787262753561   -1.36447162155845
H         6.55590338928027   12.79904832571900   -1.90122262545693
C         4.00906125317657   12.85412310958974    3.19638454531251
H         3.95525634066730   13.94044637344607    3.18101576780238
H         4.58570350327636   12.52720629639730    4.06586199237923
H         2.99796278268353   12.44047546885268    3.25276081241038
C         1.50545499025899    9.18160558271516    5.33615049513322
H         1.36685607604833    9.88290871148328    4.52308404002730
C         1.41117610928664    7.77044316555024    5.23834798469237
H         1.16740528770891    7.21589772180307    4.34011412113496
C         1.52098585918630    7.23878649209597    6.53585372100579
H         1.35136970173268    6.20618768968679    6.80835436112145
C         1.70196070520190    8.31583294595263    7.43943853466845
H         1.67735441235458    8.25247210946908    8.52034951727928
C         1.66846197821717    9.51408384693826    6.69558551522749
H         1.66891673728586   10.51540284974913    7.10600446764742
Cl        4.40658460193544   10.35451544466641    6.18379827524502
O         3.87153596656709    8.22947928384786    4.28851567935971
O         5.88421015521033    7.25430126429067    0.76969420317709
O         5.81736449075537   11.95442682475723   -0.24510812526472
O         4.64217485124845   12.49215197678918    1.98530183908993
Ti        3.57240251995185    8.27523191119244    6.06086891679968

