42
CSD_code = MOLPEJ | q = 0 | S = 0 | Stoichiometry = C17H21ClO2Ti | MND = 12
Ti        6.28049375604107    1.77251910801004   15.87070421662920
Cl        8.17923290815119    2.63609399897692   16.65741788707750
O         7.07536923274590    0.43619198209826   15.06999683845953
O         8.94804454437089    0.79269425172681   13.95587253888917
C         7.77970518124884    0.48648552608844   13.97387358429408
C         6.96741478260418    0.17621585052521   12.70420589690786
C         6.43827427135892    1.58831376186311   12.26011377393871
C         5.83156582404849   -0.79141741206377   13.05514810903751
C         7.88026422973311   -0.47814071036537   11.66639109740473
C         7.56292740355287    2.38100934505935   11.57685294046661
C         5.27820171599520    1.47196589939573   11.26119107945684
C         5.97460674544309    2.36404333076924   13.48454079216854
C         4.69949597664365    2.31399813526296   14.09815614003444
C         4.63191491884179    3.32206823903050   15.08815038272247
C         5.88751387297353    3.94578547751197   15.15851805977399
C         6.71754375042880    3.34968210917014   14.17161808851287
C         6.00711600876503    1.53373846812567   18.23184263960107
C         4.79850546615540    2.00642640601774   17.69196715769393
C         4.27184072443906    0.99349169530806   16.85396374029417
C         5.16229135283222   -0.09672696530992   16.87742748937325
C         6.24339683812289    0.24119075858757   17.71807213726260
H         5.32976516749113   -1.12726698223064   12.15097574665301
H         6.24576113151103   -1.66543054055403   13.55688887476221
H         5.10260665440487   -0.33176804811672   13.72451140731021
H         8.08327203009527   -1.50539807650063   11.96209722420193
H         7.41117861146869   -0.49155741440434   10.68598305660346
H         8.83048000989956    0.04298008776857   11.60751680726766
H         7.77432201356036    1.97103847052302   10.59334322534920
H         7.25557058991733    3.41726116498150   11.45135438901517
H         8.47531722855242    2.35277009388493   12.16678606783143
H         4.41803337255442    0.96289973205707   11.68267886774128
H         5.59585596543310    0.93208478320487   10.37282537188689
H         4.96800998507625    2.47028083739283   10.96041954411197
H         3.84783033496149    1.74376095092937   13.75328958569331
H         3.72962520017241    3.64250770036909   15.59273704171869
H         6.14290890592939    4.82101501240703   15.74486124178823
H         7.71816187387589    3.68376155834668   13.93318838896893
H         6.60873768653880    2.03669031855328   18.97640132025575
H         4.29037282649330    2.91320193581293   17.99545103579844
H         3.28708926398093    0.99145957360606   16.40504978755497
H         5.00317497950862   -1.06089678640379   16.41148667484435
H         7.06730666407890   -0.40782362741395   17.98652975064408

