89
CSD_code = MOLQIP | q = 0 | S = 0 | Stoichiometry = C39H46AuN3 | MND = 2
Au        6.16602289790539    1.21877160831256    4.15139386849945
N         8.66824199346161    0.16462893425762    2.88850799622809
N         9.00994725258748    0.69816009182887    4.93186492317861
N         4.23977443151057    1.78993619030304    4.32172623053427
C         8.06000569369898    0.65921232905071    3.98098170869639
C         9.98619467775833   -0.10416732716380    3.14946315097118
C        10.20234668709756    0.23304280581269    4.44283006506323
C         8.01781181849499   -0.06020466090373    1.64450312577049
C         7.89847944646847    0.99801329565378    0.74138666291374
C         7.28204786773586    0.74488807102377   -0.47608546030089
C         6.78070209326072   -0.50903350301163   -0.76855018972596
C         6.88696669761229   -1.53568450898831    0.14963015066546
C         7.51450471660703   -1.33333779356842    1.37116680409823
C         8.44935914490400    2.36720536549582    1.06300747756089
C         9.80087066010839    2.55316508083978    0.36560298081043
C         7.47870937031939    3.48112195606458    0.67108174710292
C         7.59652727716360   -2.44644432435638    2.38965395507962
C         8.13777869826532   -3.74156190847593    1.78221972075974
C         6.21238723393522   -2.66577330392666    3.00607981666524
C         8.79324398964180    1.16239891338533    6.25796560370449
C         8.27228459164024    0.27960607648060    7.20641178739899
C         8.09181859857016    0.74992196167850    8.49956647558108
C         8.39559297462065    2.05781565281179    8.82602704940631
C         8.88762039975032    2.92124037753102    7.86658150980874
C         9.10278540424840    2.48826627141473    6.56528298592771
C         7.94643540210271   -1.15101118386096    6.84731916758166
C         9.08714933896927   -2.06598610122355    7.30484740315737
C         6.61460208397208   -1.60390400648104    7.44520966433193
C         9.60530415826888    3.44383023899026    5.50835629445704
C        10.85317478989909    4.20000197259942    5.96715094431857
C         8.48189350283598    4.41383152640373    5.13303953411075
C         3.41440674194245    1.18576507259658    5.24228978105696
C         3.63575872016892   -0.14343998375870    5.62609717454875
C         2.86172232613347   -0.75415327991220    6.58991661806369
C         1.83840464210227   -0.06080155731353    7.21455549899703
C         1.61210104319675    1.26039623135013    6.86009181744621
C         2.38098977016861    1.87572428930493    5.89635198898803
C         3.73960787751830    2.78499593352105    3.51305077342599
C         2.41209565802676    2.78943904066147    3.05552871076506
C         1.95889879771785    3.76437680425984    2.19369551580131
C         2.80316357559521    4.77113335813639    1.75087580706927
C         4.11935895196930    4.77700295125605    2.18174887472398
C         4.57942221965043    3.80299892063766    3.04244728346383
H        10.64265152046074   -0.50996018990323    2.40791351825320
H        11.08640740727956    0.18830549570399    5.04444669370349
H         7.18511618973169    1.53690849809396   -1.20079883162763
H         6.29621224068950   -0.68526115009755   -1.71715023882329
H         6.47450968569847   -2.50382247176970   -0.08600886829089
H         8.60686671104497    2.43890699182058    2.14420140927048
H         9.68580044903682    2.46624001078181   -0.71237121990952
H        10.51435712078155    1.80013101870084    0.69550878620247
H        10.20778750783805    3.53606798516027    0.59175553558733
H         6.48566546881667    3.27797807356466    1.06490141242592
H         7.41108339740320    3.58805310947407   -0.40816382342781
H         7.82361121750253    4.42821434346340    1.08003327701911
H         8.28019205906428   -2.15106843458538    3.19261891794108
H         9.08921879075419   -3.56339493555409    1.28500182305845
H         7.44362615011496   -4.15823980350882    1.05800001958991
H         8.29088266501585   -4.48054404171158    2.56558253846975
H         6.26086407496244   -3.42546126360047    3.78314473960033
H         5.50244695284939   -2.98849901394654    2.24892601027880
H         5.84466608631830   -1.73902501339194    3.44417050536217
H         7.70270457185670    0.09075664327133    9.25846980910607
H         8.24031492076056    2.40875054842718    9.83515959727439
H         9.10352776122330    3.94376783258045    8.13266352466128
H         7.85710405268901   -1.22974883238345    5.75890206157238
H         9.21746817109770   -1.99838226042631    8.38249062966006
H        10.02467404073151   -1.78480335814271    6.82845829414652
H         8.86605685293954   -3.09925076675560    7.04735333912684
H         5.83258331653215   -0.88091637964286    7.22576849477505
H         6.68378448945655   -1.72732774854863    8.52261001907968
H         6.32766123120436   -2.56165838275214    7.01675109543369
H         9.87633121292527    2.87855745059594    4.61035398016394
H        11.62257147991630    3.50495169407964    6.29754258802182
H        10.62576335863579    4.87621370819242    6.78628701118793
H        11.25106442640407    4.78956607535455    5.14421477062306
H         8.19383367329106    5.01694459565603    5.99019689880319
H         7.60586242063426    3.86198185820911    4.79554322822562
H         8.80679150032879    5.07753319135128    4.33477792441880
H         4.42947560567192   -0.69596621603305    5.13940461654823
H         3.05657079025770   -1.78533424146817    6.85481422467009
H         1.23098098031886   -0.53929453938001    7.96890043220597
H         0.82800507763427    1.82180068205794    7.35048364739216
H         2.20554730069665    2.91355862416730    5.64995955272045
H         1.74604617514885    1.99878103674821    3.37149105652120
H         0.93233313913207    3.73526618888206    1.85345688314113
H         2.44225682083510    5.53437499010921    1.07696536561739
H         4.79502348446693    5.55264782140936    1.84518472157992
H         5.60868323212344    3.81961269694638    3.37791103026944

