32
CSD_code = MOLTOW | q = 0 | S = 0 | Stoichiometry = C9H14Cl2N4OPtS | MND = 4
Pt        1.63347189687033   -0.04646506093187    2.49770090928012
S         1.21364636088722    0.84330811719926    4.47990704363691
Cl        1.95532876772072    2.04215766728068    1.60867797877953
Cl        1.35523126146262   -2.16118965475930    3.34673501379166
O         2.39851647251122    1.06180859713786    5.28011204950945
N         2.90142151599724   -1.83330831063851   -1.15367628478972
N         2.20448492428199   -0.87259959974854    0.73153103081402
N         4.29775732212009   -0.79796458301048    1.85480821851756
N         3.94216250734790   -1.68098028549510   -0.32781408343202
C         1.88260760275103   -1.34019200697944   -0.48691302241213
H         0.88952362508630   -1.31814604619910   -0.88989143833446
C         3.51539304479334   -1.08708680576073    0.83651392512049
C         5.57005689796024   -1.10892871931589    1.73860793211301
C         6.07044453492777   -1.72639145781817    0.56413881092513
H         7.11861226646006   -1.97023789152745    0.50086967387814
C         5.24390443219133   -2.01892797791538   -0.49044809004269
C         6.45726939453112   -0.79118370133151    2.88659260503402
H         7.27404346239707   -0.14637942383956    2.56736277879303
H         6.88855959864529   -1.70592983626785    3.29019918173632
H         5.87606475223863   -0.29423026079274    3.65756986827281
C         5.63501737318166   -2.66163438996828   -1.76834700406859
H         5.38475685868944   -2.00402875081726   -2.59985540906394
H         5.06275212476826   -3.57836926138711   -1.90516317522449
H         6.69675578692588   -2.88555044280713   -1.78321284277926
C         0.30094751856919    2.41279973208344    4.40831717528771
H        -0.64608427928121    2.23006946450758    3.91368167967616
H         0.89280884688385    3.11292449452271    3.82778840652527
H         0.16265012578790    2.77681473054643    5.41983493590410
C         0.03640589257565   -0.09806879261337    5.49490710854702
H        -0.89462002068944   -0.18006571457629    4.94604356204574
H        -0.09597191505068    0.42155790101301    6.43686690932498
H         0.45588104646055   -1.08508172979224    5.65905455262870

