54
CSD_code = MOLTEM | q = 0 | S = 0 | Stoichiometry = C20H18N6O9Zn | MND = 6
Zn        4.90834866051860    3.80584541277230    3.43485097782919
N         6.87335143339413    4.30201730110179    2.79986163946441
N         6.08672735897094    3.14721385884146    5.01824218072223
N         3.42937843911912    3.63479585005467    1.26165497003117
N         4.08634018257800    6.06066668964710    4.05600987000515
N         7.78863408787123    2.39525022095059    7.03201627566190
N        10.51572590297137    3.23756018847425    6.67145794304371
O         3.52197558901856    2.37149242503146    5.01783551648674
O         6.79713698705861    1.60245935960457    9.42584512215547
O         3.14854131575216    3.54509334315181    2.48909912506004
O         2.55413174248526    3.73320486525985    0.45007422314513
O         4.62006222411616    3.55835034935722    0.95599319183247
O         4.10177388952790    5.11100484853193    4.86215987961265
O         4.59154632345645    5.85439657185413    2.94066525826381
O         3.63264376316824    7.12711869306330    4.35695141974351
O         5.34776323107466    1.61908568534258    2.72756609955686
C         7.13469254042486    5.02290535465160    1.72435114198158
H         6.38049492045156    4.99790654728620    0.95304031830645
C         8.29641515362627    5.77038152960579    1.59711714457905
H         8.47723374735049    6.34227734278609    0.70166554719357
C         9.19189151192879    5.78924606483932    2.65450980306321
H        10.08423348144585    6.39570279448111    2.61340819859458
C         8.92430863995578    5.02136762914810    3.77549763626491
H         9.58605358030753    5.03433004588295    4.62632249809564
C         7.75709042899804    4.26121381793811    3.79978552229918
C         9.71712548397929    2.81215184533712    5.70208358154412
C        10.20111675063330    2.25029379599695    4.51829076008666
H         9.51595600063475    1.90260624167657    3.76011957165450
C        11.57030911753364    2.13740381046031    4.35622451982355
H        11.98011522231851    1.70264535151052    3.45629190275939
C        12.40414045833318    2.58832882699060    5.36873214018158
H        13.47673495762971    2.51972115908785    5.27949295096242
C        11.81995391197815    3.12888102495329    6.50520811468574
H        12.42232011671994    3.49680845489896    7.32504370346664
C         7.37003530724964    3.41095395205397    4.92708844882178
C         8.26016063431362    2.89505110189179    5.92070796928408
C         5.59835801718270    2.52103365197079    6.09083908476748
C         4.21686293371518    2.20906821097339    6.16009136257783
C         3.72358888614474    1.76966350495523    7.36785870933880
H         2.67276444172144    1.56224759607780    7.48938889002300
C         4.55971145833942    1.57963460058046    8.47760409771770
H         4.10056150804491    1.23899228550409    9.39176517911208
C         5.92060221790933    1.79348889725765    8.42028505717156
C         6.46942305924745    2.25520547345636    7.19000221119166
C         2.10971917227870    2.42278839573642    5.10297069177358
H         1.79316631449046    3.15423596646320    5.84910877899791
H         1.69732699588172    1.43713782080910    5.34166718776850
H         1.77236814591102    2.74279786429586    4.12046678436886
C         6.31291033444401    1.13486477892713   10.66276592656435
H         7.18681410942413    1.05477761585316   11.30646537706924
H         5.84320864979777    0.15094349197035   10.56440189025198
H         5.59961349892465    1.83661620924516   11.10621634726170
H         5.40499146461510    1.87718003320879    1.79590753502280
H         4.50794569504129    1.16239124818725    2.83432972277147

