61
CSD_code = MOLVUG | q = 0 | S = 0 | Stoichiometry = C25H29Cl2NO2PtSi | MND = 5
Pt        5.66027547378181    4.62176656312946   22.51642025511510
Cl        6.74209576502387    3.38002528037148   24.18154227992600
Cl        4.83119080796033    5.82839237591952   20.69627405978885
Si        1.89421915059012    5.10522595850393   25.78901006549334
O         3.29556577570920    5.93841047609713   25.90353854286831
O         1.27056834780550    4.93246268092242   24.27939179523727
N         7.34489939939123    4.42578436446554   21.45284726429830
C         4.50235756177839    5.76791111823133   25.19402147233584
C         4.13627723566204    5.44156411786723   23.77125728745430
C         3.77115980466465    4.15011040341688   23.41419358001685
C         2.60800254120380    3.92187250940810   22.49594552291978
C         1.35503311166598    3.85032986721369   23.39592595951829
C         0.66885465880263    6.21198874742909   26.68523275906306
C         1.07548127194988    7.02397309443741   27.73813872718677
C         0.16776378078067    7.80380892728620   28.43127950381236
C        -1.17279793650753    7.77989811439795   28.08523249067983
C        -1.59571129586502    6.97442512676684   27.04168923795960
C        -0.68120081400469    6.19779415564542   26.35362761885978
C         2.01598194484996    3.37443343986196   26.56813174785408
C         3.21505851348043    2.83748730994992   27.03214315782079
C         3.27757440557450    1.55642500328590   27.55130984566024
C         2.13390232730981    0.77994388935197   27.62069688754714
C         0.92844513268628    1.29639548097067   27.17519899255088
C         0.87435956900972    2.57772346009206   26.65812279361087
C         7.48566704317896    3.38869088590744   20.62249196805459
C         8.64265067224994    3.23418496846551   19.87670936574599
C         9.67253639360418    4.16188799022373   19.98518303865892
C         9.48834554771684    5.22682120115877   20.85946491254910
C         8.31285863301476    5.33709838088203   21.58439965179967
C         6.34324795637603    2.43031992388479   20.54632979033496
C        10.93814588822417    4.00614430318377   19.20958899027153
C         8.05809729123709    6.45569101340106   22.54004426229530
H         5.09132191659682    4.96533094113608   25.65040577633098
H         5.05141786934909    6.71139872859094   25.27553135210504
H         3.64771674802930    6.26888246722944   23.25431888484080
H         3.93917433009609    3.34794587850970   24.13659346199315
H         2.68721428502893    2.98520199642459   21.94181891402631
H         2.50698161790853    4.75089523821505   21.79437840641638
H         0.45654028230218    3.87182461364811   22.77069747895060
H         1.37227954123972    2.91097630648662   23.96197818037136
H         2.12058436873026    7.04460437259888   28.00477065596674
H         0.50369239775178    8.43201661969941   29.24417595100240
H        -1.88468842073497    8.38781326666815   28.62524131764691
H        -2.64055259502887    6.95293617168703   26.76537088328689
H        -1.01275141975364    5.57708582846728   25.53504989529337
H         4.11494916457527    3.43278266180046   26.99152959498371
H         4.22151784292806    1.16319572829253   27.90025605737337
H         2.18024982418024   -0.22170373600207   28.02316956070068
H         0.02996814165754    0.69836151079100   27.23205126316684
H        -0.07032589455028    2.97787855994493   26.31795580586753
H         8.73770259967847    2.39082670156270   19.21078776858520
H        10.25799576890274    5.97332889867413   20.97798504174172
H         6.14758099768687    2.01488015857278   21.53900260924209
H         6.55412990408519    1.61790142084193   19.85660848584273
H         5.44676319418367    2.95988808293681   20.21218955268415
H        11.64105821931548    3.39797539939663   19.77949410641867
H        11.40160293672907    4.97151280479413   19.02358372565067
H        10.75360253469601    3.50688402608404   18.26179817879010
H         7.14115240686599    6.98002490035490   22.25568651426304
H         8.88312779424983    7.16240568788354   22.54952942876726
H         7.92328768428371    6.05085363260998   23.54675732046560

