78
CSD_code = MOLXEQ | q = 0 | S = 0 | Stoichiometry = C37H30FeN2O5P2S | MND = 8
Fe        0.48203410573819   11.92597206284337    4.35525879605546
P        -1.49169457675735   11.21242536810979    5.08843728250848
P        -0.88466328080649   13.34010463236749    3.46761901949968
S         0.34797181084729   10.35020076666778    2.75377120220069
O         0.33477697769378    9.21208539274307    5.05930240707842
O        -1.26669224835064    4.67127031352876    5.63838690948146
O        -1.24658775160475    3.26855077480948    4.00814373708125
O        -0.23125165384557    4.81342903418465   -0.41427285219540
O         0.47808260145279    6.82140358867836   -0.71059235170368
N        -1.06688423941177    4.37043004898283    4.48052471534857
N         0.07493509833063    5.91563835184169   -0.01385318277785
C         0.30452485264672    9.02792604388987    3.84615766704504
C         0.10696204179516    7.68628994912758    3.25908119035001
C        -0.29070842790619    6.65957908920184    4.11308569295654
H        -0.37852854720429    6.84942880171889    5.17212594003951
C        -0.59418878167903    5.40901768785280    3.59426095536538
C        -0.47671280928114    5.14259740130966    2.23766003375570
H        -0.71083788870255    4.16576578243818    1.84005395884454
C        -0.05396542708972    6.16973321960633    1.40472226285801
C         0.22877456519250    7.43739396967551    1.89613166286583
H         0.53099545866508    8.22291091614322    1.21926276050184
C        -2.42582156943067   12.46878210002289    4.03738194943539
H        -2.94211443039615   12.00239880550135    3.19446420761225
H        -3.12054430271154   13.10249002527584    4.59212327349287
C        -2.39696797607730    9.66259393632873    4.73702726625630
C        -2.62022459468330    8.75599398474896    5.77005785038189
H        -2.31912604039724    9.01071771774117    6.77612232481312
C        -3.20666922507842    7.53099005254146    5.51086863734885
H        -3.36808748949713    6.83052137002903    6.31613780120466
C        -3.56415465792871    7.19228008152443    4.21555010778766
H        -4.01909627144941    6.23390344340893    4.01323013061157
C        -3.32636844104445    8.08001307321394    3.17995108594746
H        -3.59008844979937    7.81495985498024    2.16635341110793
C        -2.73784376196242    9.30601928511147    3.43513808441309
H        -2.52579673482720    9.97403252201132    2.61093276908226
C        -2.13808217283877   11.57450517156534    6.75127997630645
C        -1.26016447922538   11.71940418930825    7.81578566226245
H        -0.20461748316120   11.59449319459000    7.63702590791465
C        -1.74215980642954   12.00938865278626    9.08083414372780
H        -1.05626238000908   12.12097940412320    9.90785459781963
C        -3.10392015472046   12.15421140662092    9.28434505176975
H        -3.48223865088809   12.38367812687463   10.26945572524272
C        -3.98599810600104   11.99516056896293    8.22571761796054
H        -5.04903884084802   12.09617202073951    8.38895568451377
C        -3.50849918913878   11.70260979261102    6.96268675266583
H        -4.19449423035418   11.56028202077859    6.13806977595811
C        -1.04410029929678   14.97560474476658    4.23829408375074
C        -0.77067210047586   16.15052455904847    3.54787406661485
H        -0.51582338469035   16.10876415880961    2.49796554362028
C        -0.83017619566042   17.36664909902069    4.20602079120190
H        -0.62412522573956   18.27906846509580    3.66606574948205
C        -1.14836516535485   17.41553554990463    5.55298650078187
H        -1.19416458130453   18.36634876126839    6.06251052443639
C        -1.39916853746498   16.24324383965495    6.25013938217975
H        -1.63700732682379   16.27903879464221    7.30329629250067
C        -1.33907868504105   15.02728883660754    5.59821021962227
H        -1.51490431765275   14.10528733259624    6.13852703075080
C        -1.12254176853677   13.66740004862726    1.69933221194227
C        -2.27033416078293   14.28679829944830    1.21310393463420
H        -3.04430747165202   14.59876116783614    1.90222211137801
C        -2.40447732101098   14.50207402572004   -0.14546762814485
H        -3.29295493034372   14.98142717392544   -0.53001527214631
C        -1.40042507473592   14.10249271253675   -1.01544607951883
H        -1.51255846380716   14.27224545053722   -2.07600162469119
C        -0.25907276846377   13.48414110306165   -0.53135483180126
H         0.51665767950443   13.16981808881913   -1.21314905894855
C        -0.11851613277750   13.26491064458188    0.82746480231928
H         0.75364611748789   12.77026571641880    1.23210239791458
C         2.52072864802903   12.44295622230066    4.00460100501084
H         3.02591069925672   12.54069832407320    3.05915379043847
C         1.87738592993657   13.47645243218976    4.71162989412785
H         1.78032465521985   14.49985338727521    4.38694902801651
C         1.42757114070192   12.95191713334176    5.94890260175752
H         1.00085765287702   13.53115120287322    6.75076174024314
C         1.87612829638642   11.60725337568343    6.03042208199488
H         1.76518839546532   10.93900585449326    6.86529583507877
C         2.54234960242673   11.29430424954404    4.84180418568482
H         3.02496265347271   10.35848524819989    4.61578108697868

