84
CSD_code = MOMCEY | q = 0 | S = 0 | Stoichiometry = C36H43AuN4 | MND = 2
Au       -2.14782467592307    0.83574506389016    6.15428315477495
N         0.42053297505145    0.90082012911297    4.58814655171061
N         0.75224353047523    0.82893233399423    6.70138970213665
N        -4.06164282545341    0.83960360630886    6.64603508640609
N        -5.92784955209332    0.84081050752593    7.98866516878000
C        -0.21951669326520    0.84879586389203    5.77052599609360
C         1.77934824896744    0.91300957454758    4.77459746010529
C         1.98848821926718    0.86732782484556    6.11129499934852
C        -0.23657990505958    0.93950285113024    3.32898496361775
C        -0.48671389321823    2.17938142925872    2.73720468100664
C        -1.14558145266287    2.19650102654658    1.51575011499055
C        -1.53275581687595    1.01957116598982    0.90406413483572
C        -1.27488977696606   -0.19637573546300    1.50613358107357
C        -0.62397605683782   -0.26044398783668    2.73094858586058
C        -0.10354448368172    3.46805005129075    3.42609780725479
C         0.61461024868549    4.43295662423664    2.48114881781913
C        -1.35846385598964    4.11447303030968    4.01932593296076
C        -0.36969210263313   -1.59420733687650    3.39188171614268
C         0.46280292373805   -2.50603161887826    2.48800456303104
C        -1.69813223695324   -2.25435173363876    3.76622010204931
C         0.51426949393682    0.76279392118748    8.10217762147000
C         0.50048854084728   -0.48772157100868    8.72403006553922
C         0.28558245435894   -0.53222495640925   10.09449123609751
C         0.09747532623043    0.62921454383187   10.81923737296138
C         0.09096278490629    1.85456012921143   10.18150932126536
C         0.29350442027836    1.94499175585993    8.81088730834802
C         0.65715354716604   -1.76347680147596    7.93071802066365
C         1.71142024528670   -2.68903627734480    8.54028381271790
C        -0.70085473542748   -2.46423660076442    7.83447091282420
C         0.25197797182988    3.28893481822778    8.12372733851600
C         1.34394454897051    4.21318730829060    8.66754650312540
C        -1.13358410708797    3.91804545231086    8.28585851060935
C        -4.56827233059340    0.78591919672165    7.88307032863937
C        -6.47652319371003    0.79474949577417    9.16644846898544
C        -5.76947063233998    0.68884937044820   10.38081203737150
C        -6.38847854508489    0.64101202271268   11.64264575938588
C        -5.63779637220124    0.53538087568403   12.78016967372496
C        -4.23393098269681    0.47270325768362   12.69466420047267
C        -3.60320523288072    0.51678906584904   11.48694894561241
C        -4.34804370174530    0.62744435268687   10.28635902680666
C        -3.76525136364711    0.67830375673438    9.02418293061362
H         2.46567659487435    0.95194166001170    3.95434005944318
H         2.89322130897946    0.85856045904401    6.68294571132940
H        -1.36494029195908    3.13879298059787    1.03970503572753
H        -2.04492764604923    1.05124783826507   -0.04586634700316
H        -1.59024591663327   -1.10660145556623    1.02103816411457
H         0.58262443404435    3.24440406872909    4.24954229097132
H        -0.05725108470017    4.80877424752665    1.71463034990865
H         1.45323774690879    3.93967400886977    1.99369555193273
H         0.99362565371073    5.28424867085736    3.04214945161898
H        -1.84082764942439    3.43351620212248    4.71969892688467
H        -2.06927419985015    4.35768427659389    3.23374292855528
H        -1.09686930528761    5.02915001275613    4.54625564207809
H         0.19458267611632   -1.43682477807853    4.31642243543420
H         1.39741540695333   -2.02155537277152    2.21200827003305
H        -0.07594079234570   -2.75350910423179    1.57760431129918
H         0.69504239465213   -3.43207657659428    3.00898541595778
H        -2.29272873762874   -2.45987431606242    2.87983938707019
H        -2.27048036920409   -1.60000477591851    4.42249188942380
H        -1.51598437875975   -3.19231078253606    4.28542089610055
H         0.25742649859432   -1.48398733821629   10.60078113990654
H        -0.05417166337994    0.57779387408445   11.88725261461609
H        -0.08362857942460    2.75070514773924   10.75561120750507
H         0.98299442333326   -1.51848602903099    6.91415716180023
H         1.38857314149377   -3.07336370775134    9.50367992263815
H         2.65280282583494   -2.16035582779871    8.67792451480794
H         1.88500890811611   -3.53647453830109    7.88064627501592
H        -1.43481063322723   -1.80604038296224    7.37111345569904
H        -1.06358136909314   -2.73416350571571    8.82299107001554
H        -0.61610653694928   -3.36857743284656    7.23613620128019
H         0.43103407729095    3.15250907777161    7.05216415978317
H         2.32576188591206    3.75741051480997    8.55127073151103
H         1.18680466639681    4.42275382876887    9.72217282180958
H         1.33551275245486    5.15717981083721    8.12719723308595
H        -1.34985474023081    4.12185674394915    9.33097292009628
H        -1.90046604228109    3.24628285691925    7.90365140039290
H        -1.18620233184590    4.85382527541377    7.73394282332553
H        -4.80957293780275    0.91202529333144    5.96974206608048
H        -7.56148968340587    0.84356937195230    9.18056501779556
H        -7.46819552638134    0.68904137566791   11.69412676434687
H        -6.11126077361937    0.49832643095904   13.75109424401467
H        -3.65772768423323    0.38797116609494   13.60688815975669
H        -2.52511271980458    0.46789686886291   11.41605710252256
H        -2.68892475711677    0.63261007545008    8.92026810556439

