81
CSD_code = MOMCAU | q = 0 | S = 0 | Stoichiometry = C33H40AuF3N4 | MND = 2
Au       12.09898924681473   14.91356161795700    9.90890395668826
F        13.52824262716287    9.11597763636588   14.43805692005668
F        13.68457598306196   10.73079851375534   15.84348867318096
F        11.84189985448418    9.63133946551729   15.66982136325023
N        13.05903339216771   16.91689881300681    7.84756770688847
N        14.61582128306192   16.21046848792307    9.13454723634678
N        11.02866541125354   13.65828778946294   11.01968253375820
N        10.61505670232608   12.04132404432498   12.59573659437610
C        13.29866664693226   16.09786821238767    8.88544378906757
C        14.21393394667004   17.53914474541907    7.44879256737909
C        15.19879588681030   17.09187529395441    8.26388240550866
C        11.77946473371757   17.09953830750953    7.25584068448207
C        10.95929258593478   18.12604032030315    7.72735238570296
C         9.70580702998483   18.27389611252217    7.14951823999971
C         9.29099860082514   17.43294275038236    6.13469805878418
C        10.11922946360855   16.42429211585678    5.68193031723480
C        11.37922363870911   16.23697429270088    6.23427586852167
C        11.39654751758621   19.02461976585489    8.86005020724299
C        11.21439295282667   20.50330207641726    8.51293940334236
C        10.62228733655767   18.65869494519974   10.12899460102004
C        12.26742069359318   15.11429795373017    5.75297499474404
C        12.50933270132785   15.20678196183586    4.24490882586468
C        11.65091105949865   13.76534421171237    6.13001630271987
C        15.27756340112586   15.49502265125565   10.17163782903376
C        15.82151000251829   14.24076410810471    9.88738813246419
C        16.43716109705659   13.54825115270280   10.92153129219714
C        16.50814147779032   14.08760564097586   12.19152142781298
C        15.95721185106989   15.32715455613410   12.45344532815883
C        15.32893482969943   16.05311863919274   11.45046930134934
C        15.71456422937054   13.62316695377074    8.51335342432134
C        17.09241104378985   13.24195740648501    7.96795775108741
C        14.78742924117880   12.40617147641733    8.56432200772585
C        14.69732071467704   17.38973028571694   11.75898659461353
C        15.73876434642669   18.37780667292548   12.28889546771628
C        13.55126558338676   17.20793164830239   12.75680568421591
C        11.49627555939894   12.84407037300310   11.95824120171442
C        11.04848917307732   11.22287853390154   13.52352521735366
C        12.38054752704209   11.12358038591862   13.90787688056193
C        13.31283462466012   11.94885843403472   13.25942458231363
C        12.87799588037624   12.80697841432822   12.29281649875606
C        12.83827677380498   10.16972489968422   14.94802560661614
H        14.23332846310296   18.23316474945936    6.63439912644475
H        16.24357744147737   17.32103591561701    8.29730812065286
H         9.04391810379753   19.04992600512101    7.49961422489189
H         8.31238584594000   17.56163363931895    5.69728979422571
H         9.77896176637296   15.77062247009866    4.89442734596412
H        12.46113536859918   18.86198613048127    9.05736713746695
H        10.16301415363793   20.76026843845381    8.42080337707553
H        11.71055030575553   20.74020758249995    7.57390813987288
H        11.64524257404851   21.12236692526670    9.29652393662102
H        10.78883300927384   17.61324762897351   10.38509993309696
H         9.55592175421950   18.81114174986194    9.98396618823051
H        10.95095789488329   19.27755578611385   10.96056834211117
H        13.24023130940471   15.18616272677247    6.24962256614721
H        12.91371160885154   16.18207279588749    3.98108367059688
H        11.58785648504767   15.05610486815564    3.68962524179996
H        13.22012812144099   14.44367746012825    3.93632244718237
H        10.68598560597905   13.63319517817929    5.64793912385797
H        11.50944309796267   13.70452546185002    7.20812780835924
H        12.30604389076949   12.95477255284101    5.81991707547174
H        16.85464019752192   12.57159009956072   10.73523525592403
H        16.98596590446682   13.53352493434647   12.98507661978419
H        16.00558899179410   15.72930399822888   13.45287759090478
H        15.27473662958980   14.35112230279518    7.82339913996291
H        17.54411118806552   12.45310954070194    8.56260996346098
H        17.75901853457059   14.10223775980349    7.97524453341378
H        17.00060823874589   12.88493478573861    6.94470346783824
H        13.80480356155857   12.69358098958276    8.93583482369162
H        15.18913854124046   11.64142567498018    9.22344509001540
H        14.67269975915624   11.98063705622134    7.57002932599574
H        14.27493829982117   17.81091458023459   10.84075062718208
H        16.15405099372356   18.03753600203383   13.23337399605851
H        15.28061761330655   19.35117889408009   12.44883327651693
H        16.55442612261005   18.49269806748462   11.57745953739310
H        13.05052885285500   18.15794369539577   12.92876428449198
H        13.91991420028117   16.83563004045264   13.70856705763157
H        12.82376250206947   16.49591317733152   12.36998308038593
H        10.02842983987826   13.54470147762013   10.92348098515193
H        10.29249600304239   10.60734909490963   13.99582784111116
H        14.35759894510011   11.89979407026306   13.53331094744641
H        13.56401162872355   13.46036402625339   11.77553109145734

