39
CSD_code = MOMFOJ | q = 0 | S = 0 | Stoichiometry = C14H17MoN3O4 | MND = 6
Mo        3.54320766617235    3.68397153410312    0.42482919329102
O         4.46871989306117    2.81956261424916   -0.97789393636365
O         2.40936190947128    3.62195945442029    1.88724560606103
O         2.68970428714884    4.76526209069946   -0.48434883340929
O         4.86419491229401    4.33267022245293    1.18640690776510
N         4.10967807766609    1.78526921284395    1.48025576192827
N         1.82950086907901    2.12987687393934   -0.45988000337857
N         0.29337440772483    3.07060975274938   -1.71214012283372
H        -0.44119589879611    3.69865040894530   -1.99553459702864
C         5.46108540135896    1.98860728879789   -1.10035060753277
C         5.80710053553973    1.07149702566229   -0.07045015889313
C         6.88099097341995    0.18976169144474   -0.27305353562696
H         7.14089111686676   -0.50047479736590    0.51785753967670
C         7.60126665063792    0.19469098978678   -1.44274017533030
H         8.42717839389167   -0.48619331285130   -1.57831793720960
C         7.26070929318118    1.09102481546612   -2.45604072325029
H         7.82811307376979    1.09855355358190   -3.37512954378452
C         6.21157865765037    1.96339638874523   -2.29428658704408
H         5.93883641605857    2.66833612696767   -3.06676854625548
C         5.09150066630381    1.02756333015474    1.17024867957024
H         5.45086911325190    0.26955232121334    1.87339504309354
C         3.45300521009149    1.65965746029078    2.77079723887598
C         2.90561132362649    3.08235663376425    3.05386134147660
H         3.73789472104839    3.71500981389025    3.41828334798378
H         2.11135909136915    3.03490963816843    3.81910927143757
C         2.27750649655815    0.68573739993439    2.60630889593136
H         1.59963460558747    1.06441064557402    1.84259384355353
H         1.74252700022296    0.58793267072486    3.54806350584838
H         2.63891431029105   -0.29524066452022    2.30162253060181
C         4.36678820933533    1.21642298497311    3.91784240751850
H         3.86878399960929    1.41770849974290    4.86321922960692
H         4.58419279682529    0.15110966828222    3.87494151441630
H         5.29913823314138    1.77664135883693    3.89325452774241
C         0.80813562642644    2.95829472864534   -0.47808390718278
H         0.42102100425186    3.46517712316999    0.38678942921408
C         1.04050915749841    2.28169682456609   -2.54071018484283
H         0.84229070008592    2.19908863338039   -3.58912679392520
C         1.98359033289516    1.70116765262018   -1.74846292642360
H         2.74363076538446    0.98957134195179   -2.01190669527552

