92
CSD_code = MOMKIJ | q = 0 | S = 0 | Stoichiometry = C36H50N3ScSi2 | MND = 5
Sc        9.06877646299703    6.33438896612579    4.41251432528711
Si        9.40007005262505    2.93251669306602    3.39813062463413
Si        6.99689069313942    9.28975295167840    4.80516171561437
N        10.81608419742943    6.85392059591544    3.12790356856764
N        10.85785070185083    6.53917640186627    5.92415774239784
C        12.65754823460685    5.92667433409783    4.40743364136490
N         8.24263351852932    6.78069979019725    2.24001603326183
C        12.07338468518725    6.17525521151403    5.68210373062333
H        12.75651346419529    6.04755519808039    6.53202714973849
C        12.04643527807055    6.28809140252941    3.16835081639396
C        12.75988909501108    5.96759371303702    1.98650367081401
H        12.29342632703487    6.18085117270491    1.03511516722213
C        11.33930870391795    8.51595131141212    1.42088734854798
H        12.34998508988168    8.60470584206672    1.79342024187769
C        10.58823571829105    6.85918418381469    7.28558295822997
C        10.27681885362800    5.86133897513922    8.21381721470841
C        10.46866723662666    7.62902411308137    2.04913251365912
C         9.11545416051587    7.57783915802207    1.57941627138416
C         8.36930506710650    4.16857797932562    4.37916167831404
H         8.21798289930667    3.76358368867200    5.39028256050690
H         7.36063991705104    4.18375751056843    3.93072954607002
C        10.06557111860029    6.23025120078823    9.53639480726862
H         9.83446088132654    5.47344894097568   10.27002450235976
C         7.61393058614728    7.67207222496623    5.54902603146435
H         6.72949394714768    7.06729886743922    5.80999925086739
H         8.08438672367035    7.91340405587302    6.51778848553792
C         8.73541628454909    8.33124500869642    0.43480311023093
C        10.67733429847263    8.20463678934968    7.67251253147625
C         7.02935219664330    6.63751985507791    1.75053577618390
H         6.36643201784612    5.97831239322415    2.29709387206682
C        11.03801912838408    9.25530345774252    6.64552976097535
H        10.67935009027036    8.89866127595180    5.66723449373391
C        14.59441088702041    5.04416384009582    3.23391203819549
H        15.56591520745576    4.57550127587173    3.25139022810740
C         9.70281942108762    3.60993782524432    1.62894627752293
H         8.76805220624983    3.72527419600125    1.08744738708892
H        10.33916593446206    2.95032883463503    1.04700772790388
H        10.18381112758360    4.58422460237858    1.66585377862369
C        10.17241764173820    4.41007965955190    7.80250238709131
H        10.22177997218233    4.35161265228746    6.70688492030313
C        13.98238696242072    5.35447063839769    2.01608022897836
H        14.47833775656634    5.10522507457293    1.08910700855441
C        10.46014117524610    8.52924969132645    9.00263319389668
H        10.53366097496522    9.55566156515567    9.32421495800507
C         6.57773249003812    7.29155352588043    0.59688189752472
H         5.57200216269026    7.12243008193072    0.24475524541944
C        10.16013263444766    7.54958254796435    9.93150853418757
H        10.00187415454693    7.81723004611009   10.96563299488152
C        13.93389736726702    5.33122426032922    4.39798695516153
H        14.38514110730576    5.07931748111521    5.34814919565706
C        10.38373449202895   10.60748984345320    6.92121782778255
H         9.31844755106614   10.48441094103790    7.09454042063695
H        10.51773137886695   11.25963819005582    6.06155587551649
H        10.83178587425856   11.09633007667466    7.78335835601007
C         9.66410192518300    9.19550133801551   -0.17057525916649
H         9.36296004795053    9.77176108246719   -1.03211673059649
C         5.51190494638054    9.01150771096287    3.61862102508208
H         5.83357447138242    8.92863109220841    2.58576058307944
H         4.80455073814549    9.83293354727346    3.67428064339108
H         4.97398329751860    8.10208035478142    3.86757870164632
C         7.42015465525957    8.15954664060062   -0.04402189026902
H         7.09932144963813    8.71527733722006   -0.91384172557491
C        10.93409195533702    9.29418220589811    0.34098199005765
H        11.64411785541269    9.97397235575939   -0.10733639147295
C        11.10021182350148    2.65723194848891    4.24410256430987
H        11.60135652056806    3.60364831606935    4.43009328187837
H        11.75907061741875    2.05561260963729    3.62559474170677
H        10.99112231554748    2.14562641178327    5.19548067698349
C         6.36250943009843   10.58617125651000    6.07702356622228
H         5.45123609358436   10.24062910659312    6.55623624124298
H         6.14301521550477   11.54026020413733    5.60590614584373
H         7.08788866147403   10.77129350817622    6.86354435517692
C        12.56024482295794    9.41838512367094    6.57433119056496
H        12.95675503687350    9.69064509843808    7.55093733843782
H        12.81958271492727   10.20101528694611    5.86442075306524
H        13.03736660517428    8.49506650789355    6.25328911069145
C         8.61937371029564    1.18785265300992    3.18701775557844
H         8.43770410557643    0.71952397884922    4.14979093260161
H         9.26264372027454    0.52333650687919    2.61767214486507
H         7.66680383102427    1.24304148635963    2.66839133319475
C        11.33640201476625    3.60194648163604    8.38170306875830
H        12.28864143241001    3.99281450151780    8.02998566473127
H        11.25918389356284    2.56155802808300    8.07421767670495
H        11.33100565689376    3.64244084852089    9.46875371023840
C         8.83291430308242    3.81170751086270    8.23787150509578
H         8.76456310309822    3.74002346086817    9.32041848842549
H         8.72254660117780    2.81147136638342    7.82465943346901
H         8.01272095865924    4.43013819038525    7.87794134181639
C         8.41577322995681   10.12591394249749    3.80293407280303
H         9.31255485658417    9.50267940474703    3.80476317575339
H         8.68612177017312   11.09412607608284    4.21142725230306
H         8.13319950306260   10.28201640670670    2.76560295293156

