77
CSD_code = MOMLUX | q = 0 | S = 0 | Stoichiometry = C44H8F20N4Zn | MND = 4
Zn        5.12548041620947    2.95923103939980    3.96736140412041
N         6.91489163206271    3.58332531753459    3.24190020693554
C         8.14394482587278    3.21531145211837    3.68744955989042
F         5.73365900231658    7.87002535818410    1.53760975841298
N         4.16841895947856    4.13658977162786    2.61966047519928
C         9.16413071666762    3.86912020160573    2.91190838325110
H        10.22175313032749    3.74894643544193    3.03948584174745
F         6.50730662057507    9.52775868079891   -0.46507042211333
C         8.52672072994780    4.64342263396228    2.00581467330122
H         8.96826393931968    5.28606664005651    1.27006425462411
F         7.73745056930480    8.51102484604528   -2.67575501184126
C         7.11670988109538    4.45011234389363    2.21598061530456
F         8.18132657365726    5.82712171564394   -2.86850038753306
C         6.11684781251105    5.07860837954000    1.47648729873769
F         7.39281737830249    4.17690154214682   -0.86613782811937
F        10.09282371983644    4.26466848478407    5.86682005905597
C         4.74641207075054    4.91759760030786    1.67080782738819
F        12.69010538301985    3.79659673339701    6.49089569761804
C         3.73281710109199    5.53356455185584    0.85658517727194
H         3.90912855736041    6.18408749022500    0.02283111257708
F        13.77890624866533    1.33840225307045    6.03352570001469
C         2.54089150637708    5.11789088190547    1.33982508633879
H         1.56444703121754    5.36636875070786    0.97345908313519
C         2.82561737591785    4.24766667794506    2.44948124403081
F        12.25218045323551   -0.64067214474336    4.94415851382367
F         9.65889879055962   -0.15854291164150    4.31216310555563
C         8.39605152661816    2.32615533546705    4.73029363064613
C         6.54587499837365    5.98502297146114    0.38342674067795
C         6.32795180972696    7.35890135714333    0.45789894309874
C         6.72546739868624    8.21669758921097   -0.56318316672469
C         7.35489090995144    7.69943433333721   -1.69251795032091
C         7.58173190606564    6.32892941178898   -1.78883246347629
C         7.17803125671403    5.49012729883386   -0.75492601039861
C         9.81532606059024    2.06440109143195    5.07318056739627
C        10.61611103480204    3.05933354199264    5.62931960390204
C        11.94805907824293    2.82652441455044    5.95673496461820
C        12.50524880595256    1.57158396334987    5.72498104691270
C        11.72365013543637    0.56181931384328    5.16948332268488
C        10.39289328692312    0.81620393853288    4.85190887141191
N         3.33608388183308    2.33510060089394    4.69278923519832
C         2.10702965857374    2.70311889868241    4.24724226072713
F         4.51731574011392   -1.95159901195751    6.39708338086539
N         6.08255603189281    1.78183380854568    5.31502502415820
C         1.08684413443832    2.04932545304191    5.02279561134037
H         0.02922225724483    2.16951185650071    4.89522810685789
F         3.74366469222550   -3.60932981616294    8.39976355554044
C         1.72425368578632    1.27502024311608    5.92888829345000
H         1.28270834252570    0.63238729793731    6.66464674059066
F         2.51351722577499   -2.59259709931064   10.61044373158546
C         3.13426442870117    1.46831496531995    5.71871138306990
F         2.06964476054986    0.09130784006434   10.80319150244037
C         4.13412730052390    0.83981721669359    6.45820287356767
F         2.85815939741310    1.74152742961237    8.80082898999865
F         0.15813305051685    1.65376516099648    2.06788950409643
C         5.50456346347557    1.00082564299405    6.26387786296393
F        -2.43914539254343    2.12185110075434    1.44381920186445
C         6.51815885155777    0.38486843744788    7.07810784406659
H         6.34184651352206   -0.26564733263384    7.91186740616886
F        -3.52792956908532    4.58005325119307    1.90117706074609
C         7.71008355829033    0.80054343067849    6.59486787811451
H         8.68652828838612    0.55207414320983    6.96123875031476
C         7.42535717761578    1.67075952120636    5.48520519436764
F        -2.00118906823298    6.55912568936393    2.99053177205799
F         0.59209051742693    6.07698248414693    3.62252297140801
C         1.85492303348825    3.59227532935779    3.20439782781226
C         3.70510024122744   -0.06659567382019    7.55126559339703
C         3.92302303310248   -1.44047349419873    7.47679332415190
C         3.52550455344351   -2.29826866351753    8.49787537390226
C         2.89607971768565   -1.78100573516273    9.62720879974462
C         2.66923976141655   -0.41050036522566    9.72352440923448
C         3.07294352566220    0.42830097034948    8.68961894382317
C         0.43564782763228    3.85403565634023    2.86151630840744
C        -0.36514447364231    2.85910521704475    2.30538573002651
C        -1.69709182811529    3.09192175986298    1.97797263243149
C        -2.25427339999942    4.34686644018869    2.20972057590633
C        -1.47266742466419    5.35663006072570    2.76521112367095
C        -0.14191212952753    5.10223799896382    3.08278369277531

