82
CSD_code = MOMLOQ | q = 0 | S = 0 | Stoichiometry = C37H36ClN4O2PRu | MND = 6
C         1.01291878589754   16.44991866782472   13.85085205048048
H         0.13914519137223   16.21697128488082   14.46279801575522
C         0.63502030809686   17.72989823641599   12.94742326703822
C        -0.61825642955800   13.88591735264755   13.72677712573803
H        -0.44447899009526   13.88919875792054   14.80373943978879
H        -1.00900999438447   12.91155867534217   13.44730586246716
H        -1.36844131269973   14.64171133672675   13.49483298024344
C         0.63848642746276   14.13846333378884   12.97755534898266
C         1.33211461174999   13.32929253576167   12.10721116292775
H         1.07749675056690   12.33229429674558   11.81228612128213
C         2.44317661610607   14.07058496420090   11.67707310124854
C         3.50790468631380   13.61117549584766   10.75029611061170
H         3.09245929413298   13.43362043637577    9.75916537422802
H         3.93413377359234   12.67838658199242   11.11611445058856
H         4.29854745176031   14.35539463111646   10.68118788686701
C         0.84561761122855   16.76671868010658   16.87408136423580
H         0.06311158201175   17.44170639149234   16.52741694317585
H         1.06862299499436   16.99585010687299   17.91240456564439
H         0.46942007831396   15.74408132161618   16.82161112642147
C         2.07843576360326   16.92768406454367   16.06291454815647
C         3.36506880780339   17.23720657003062   16.44296275007241
H         3.71924268002300   17.41311327943895   17.43773768631526
C         4.12429888210796   17.27527444717972   15.26393232565878
C         5.58575138197192   17.50402897909606   15.16007808506764
H         5.92579954357118   17.24706516680655   14.15980765180145
H         6.10320894552501   16.87317286727377   15.88094229122316
H         5.82811374510294   18.54272509428644   15.37919209230975
C         3.48351522188907   16.93784517948644   10.09219111896170
H         4.40328839437018   17.21853892040769    9.55441824589958
C         2.54238916943756   16.29821666192132    9.23140162015273
C         2.96408985243085   15.75541978066981    8.00215839530064
H         3.99681073310584   15.87579081798481    7.70649279857726
C         2.09383068922579   15.04622306930246    7.20250499678787
H         2.44207779247220   14.62060693184248    6.27220386791553
C         0.76927722188571   14.88331668086004    7.58363989766835
H         0.08885962973840   14.32864598698995    6.95437416580800
C         0.31903883729012   15.45021482413098    8.76760508865891
H        -0.71802714077229   15.34671760969298    9.05313265506192
C         1.18812681972137   16.14439980711945    9.58123677554143
H         0.82123613234843   16.61917825937672   10.47934873642511
C         5.93562885932602   19.34342663402819   10.92912726583189
C         6.02774697952340   19.91356500267110    9.66292129765020
H         5.14390773727425   20.31222672663161    9.18474692538410
C         7.24821104441325   19.96893596231110    9.01338769655126
H         7.31228105876762   20.41605805494612    8.03174144417646
C         8.38249104576642   19.44912659735538    9.61422028223301
H         9.33295441477121   19.49271908456464    9.10265915266383
C         8.29298907229958   18.86342504143414   10.86651804458405
H         9.17181777743544   18.44192644145844   11.33155265260621
C         7.07652641284624   18.80508987133672   11.52061011013723
H         7.00314969112806   18.32178340783818   12.48278210164979
C         4.54096747852673   20.10494952152845   13.34161503312716
C         3.39749750537150   20.18722106260334   14.13451106920255
H         2.47576788046965   19.74414561381522   13.77628119309050
C         3.43229964476776   20.84311534266562   15.34931174375915
H         2.54288149395961   20.89816515235842   15.96018672538824
C         4.61086670828285   21.43216733815693   15.78117837289280
H         4.64337099858340   21.94234557625727   16.73271091454906
C         5.74400831058413   21.37426234132670   14.98719752670728
H         6.65875757935496   21.84546923073421   15.31722459144957
C         5.71472637978344   20.71252576749722   13.77029791162543
H         6.60272698958521   20.67133378428042   13.15608942705075
C         3.30828471267874   20.38880954674469   10.87339128746613
C         2.34512974151066   19.94996892654607    9.97374477101435
H         2.20022847254638   18.88637703253269    9.83812334328613
C         1.57633643902410   20.86283791846704    9.27385555431121
H         0.82408232710153   20.51285334341070    8.58228555138198
C         1.76767470899473   22.22099138167465    9.46450647272428
H         1.16449502249999   22.93479529703368    8.92265310233651
C         2.73350658091296   22.66495648300027   10.35379066505465
H         2.88668362563691   23.72422462187802   10.50195891219319
C         3.50212113685729   21.75589011821949   11.05656019346853
H         4.25524666557219   22.10586438139996   11.74930383491408
N         3.33806401963550   17.02051192628307   14.22616551514133
N         2.10754752759417   16.79030400510114   14.71739812957738
N         2.41508087449099   15.26703938066767   12.25003762772973
N         1.32982302922994   15.30232834195168   13.04425092201593
O         1.52140728010016   18.09316678907367   12.14893354738517
O        -0.46044123749709   18.20995092388210   13.15497219029392
P         4.33627762138000   19.18246867556296   11.78155800805404
Cl        5.52475572461303   16.01065492345636   12.10718948971338
Ru        3.42119812460794   17.07399434119036   12.00684130853954

