74
CSD_code = MOMMAD | q = 0 | S = 0 | Stoichiometry = C30H35Cl4O3PPt | MND = 5
Pt        4.06214610761899   11.61691068659884   13.33767902895918
P         5.81537509467241   13.09150233256686   13.18477095912572
Cl        2.34620562653119   10.07222325515437   13.47523532993835
Cl        4.22946800547795   11.07397660378040   11.14497012371800
Cl        9.72244375115737   14.65621134503801    9.72647820780279
O         3.70473632115940   17.36348695572748   16.73329158890599
O        10.86179213400891   11.10946852279465   15.70937919537914
O         7.61719778157523   15.92484584169907    8.25455075415294
C         5.24737681458602   14.41863855250606   14.28018852117056
C         4.11534825656989   14.17654772605384   15.07235966674933
C         3.63828526000633   15.20646208570417   15.86825127042493
H         2.77669769673366   15.07151645429099   16.50114310498904
C         4.26557560869893   16.45356734435180   15.90195190926269
C         5.38504571010619   16.68269071750324   15.10458178292426
H         5.88289052877533   17.63897745755271   15.09817990105226
C         5.85828667138566   15.66587393556650   14.29671430814321
H         6.71440055759744   15.84080827905288   13.65910829084442
C         3.44200250727956   12.85051847649545   15.09435642794443
C         4.15682723951282   11.71543469503303   15.47478208223544
H         3.61671264934137   10.86521267660507   15.87599984503082
H         5.18716740003447   11.81990161880523   15.80636940083560
C         1.93952876674482   12.88378089692853   15.18586862048885
H         1.52237045828301   11.90407352929590   14.96283096605750
H         1.52498222207267   13.61774626269942   14.49691555783602
H         1.64007526787243   13.15652425583322   16.19805918090386
C         7.37672414002961   12.55120088669144   13.95509125487620
C         8.04634362535555   11.41045069532611   13.48481061029195
C         9.19330510283131   11.01142585113222   14.13698626112240
H         9.73727437170169   10.14169173154854   13.80552045250992
C         9.72885902652133   11.67778217173718   15.24819635089339
C         9.03117322249741   12.79423325189484   15.71364879847751
C         7.87404384238979   13.20739558369966   15.07116405530443
H         7.36056644365361   14.07063691900164   15.46644529418261
C         7.48410002696032   10.62245183010365   12.33417646555955
H         6.78469117291757   11.27071600691654   11.78708885358597
C         6.68799021338859    9.43762744909565   12.88914275625117
H         7.31682237840747    8.80824753086156   13.51487926376277
H         6.29153104246677    8.84487427179855   12.06946116537760
H         5.84123120611997    9.79276148744031   13.49133985167754
C         8.55003980819399   10.14951255029883   11.34872087665170
H         9.18357019827971   10.97764761848376   11.03929462996415
H         8.06675225623303    9.73908918709982   10.46608405195124
H         9.17503876912452    9.37357689271323   11.78327361153290
C         6.30093388223211   13.97643410260768   11.67507452774044
C         5.35401852425559   14.62067713152632   10.87218804925198
C         5.79069464840374   15.28086477415493    9.73022136572315
H         5.06065991807329   15.78387584499172    9.11788485971027
C         7.12703025902989   15.30639588511572    9.35141730875414
C         8.05465509153508   14.64450029507122   10.16821866190220
C         7.64655379477681   13.99254987053043   11.30888963365934
H         8.38326020231949   13.49352912282614   11.91969357951336
C         3.88686482207909   14.63878068249877   11.21953368236663
H         3.72359332452771   13.93877790437901   12.05546995096011
C         3.02004654254864   14.15795071436328   10.05546543819628
H         3.05705602132717   14.84726845365039    9.21576574406563
H         1.98624117439746   14.07421284553865   10.38128064451232
H         3.35434792167593   13.17868196795988    9.72508866722237
C         3.45845558364237   16.03669467309358   11.67086215000583
H         4.05495302289772   16.37045382315267   12.51668010582200
H         2.41258372084933   16.02649544775948   11.96780754382031
H         3.57784818177022   16.75263934048241   10.86070698798720
C         4.28306631793671   18.64466581475296   16.82986685091164
H         5.31561257091245   18.59252798405053   17.18887575321436
H         3.67724119329111   19.18582174012849   17.55458466087585
H         4.25515944920258   19.17081277272998   15.87055448553310
C        11.59531311915549   11.63239365256749   16.79629656701089
H        11.93962534449711   12.64967091075566   16.60032012216026
H        12.45829013888314   10.97394853564666   16.89246825094579
H        11.02005865171816   11.60771129653248   17.72396829087094
C         6.72169783349746   16.57130955661898    7.38113971514912
H         5.98783235168508   15.87140624471325    6.97071501892065
H         7.33572650025730   16.96522642858532    6.57319122322070
H         6.20422098685506   17.39816621525241    7.87772404639662
Cl        9.49526362089425   13.75433354448286   17.09540548473322

