69
CSD_code = MOMNEH | q = 0 | S = 0 | Stoichiometry = C30H25ClMnNO11 | MND = 7
Mn        9.78907978368638    8.72619963374470    8.49927604153100
Cl        3.98432543171713   14.31683373571273   10.40034874527436
O        12.53993994803355    8.08598944826840    9.31161017471575
O        10.95186617533443   10.39676800207388    6.37817939131825
O         9.25015249336100    6.26229228247190    6.99634955272929
O         8.89477270189913    6.06239915207731   11.50913646780979
O        10.61171679102030    7.51648704904387   11.44403777366920
O        10.18132742037451   11.24350614680351   11.51346006758718
O         9.18713956587344    9.55713550902710   12.61375579498954
O         7.67641406301168   12.39854891121848    9.50670992709036
O         9.80540221188725   12.16194925786262    8.79963717387438
O         6.41607573246466    9.71789639502063    6.30041707447142
O         8.05747665220125   11.18256953774563    6.75938419897397
N         7.31524637961968    7.89301665789827    9.97530070944332
C        11.45825395121515    8.31598285446272    9.00737945410413
C        10.50033975808954    9.73703868102412    7.19770452928121
C         9.50339176534672    7.22942302488868    7.55929246806580
C         8.72860108440492    8.07711488059951   10.21247490756295
C         9.08287707189036    9.50333316957112   10.29022172190201
C         8.58205777926415   10.22180873488575    9.20893548122406
C         7.73024263647824    9.45686238449033    8.28839102178969
C         6.80559016804183    8.59284186734292    8.99181869043248
C         9.36065603874696    7.11145175634856   11.12971585226652
C        11.38224410902620    6.60595968598148   12.21087419830892
H        12.39944925980457    6.98980210938513   12.20003037265714
H        11.34138617447460    5.61020593609081   11.76450970360308
H        10.99999632710897    6.55222466604362   13.23330900857065
C         9.58474045204066   10.19803632770829   11.50274516246627
C         9.60154810287765   10.13854737820419   13.84191741487354
H         9.21494390335733    9.49397534326087   14.62755395967720
H         9.19788240535213   11.14912949372023   13.93731771376017
H        10.69114186159786   10.18789648159132   13.88473406794798
C         8.62153928052778   11.72383893501046    9.18196418869633
C        10.02130765217288   13.56658659450092    8.81506881900407
H        10.76677032808085   13.77468838718096    8.05088125391627
H        10.39508457873298   13.85758556250050    9.79847609123161
H         9.08812970447483   14.09341508552101    8.60664317480821
C         7.29493525538616   10.10820359169427    7.03402037097452
C         7.78667557510611   11.87413650449099    5.55020990109803
H         8.72340107837162   12.33002934581140    5.23716786094445
H         7.03015004529684   12.64181215077653    5.72817716565525
H         7.42455150391290   11.17554820608862    4.79362202811374
C         5.33479170284144    8.69546849269435    8.76337417282849
H         4.79673931541325    7.95625444178839    9.35898110429056
H         5.11961253729752    8.54581718442100    7.70504358223930
C         4.93441426363196   10.10004165450323    9.17098602657372
C         5.08134815257467   10.49965188702478   10.49426692958439
H         5.42382669923609    9.79139938332949   11.23585581194731
C         4.78567734358535   11.79243978759733   10.88087181446319
H         4.90794770040398   12.10109460345761   11.90705211701422
C         4.34064278394833   12.69739486673203    9.93139418788178
C         4.17210560278568   12.31283544340631    8.61170848576884
H         3.81785026393631   13.02477549293796    7.88256859712223
C         4.47065408245675   11.01548896306934    8.23695414239593
H         4.35218108109818   10.71579420619151    7.20688310902058
C         6.54417445072157    7.10692651727156   10.87540024215156
C         6.44793851641608    7.48374098480765   12.20840822277673
H         6.98432342063259    8.35215865100735   12.56315623148388
C         5.68581995584461    6.72606738055591   13.07475010118794
H         5.61226176678998    7.01852355761783   14.11198064015970
C         5.01764267846699    5.58835676597563   12.63457536681059
C         5.13285065454220    5.22320959922892   11.29931872252800
H         4.63223356131873    4.33539516773728   10.94275118180835
C         5.88835306019256    5.97355766643973   10.41800931704038
H         5.99149862769805    5.67449844496485    9.38564451863381
C         4.22027894794423    4.76071077613556   13.59275722127860
H         3.49798486873369    4.14167996005416   13.06689148294243
H         3.69494076475792    5.39151770863534   14.30680507132266
H         4.88618399506437    4.10392955427577   14.15305192232824

