42
CSD_code = MOMPOT | q = 0 | S = 0 | Stoichiometry = C16H18ClN2O3ReS | MND = 6
Re        3.59481680946602    2.99008709545935    1.55282696728004
S         4.03975649485434    1.51084326168776    3.63998678321170
Cl        1.58890033770977    3.18366414534204    2.76590843762824
C         2.30553186651586    0.57334954113743   -0.24247232641360
C         2.42517205833459    1.09031549794625   -1.52732857562933
H         2.93435898845055    2.02756333780709   -1.69154025694845
C         1.87320304292910    0.35713823419495   -2.55553414110851
H         1.94242637874529    0.72668453527743   -3.56677040338228
C         1.22364687913136   -0.85772408607824   -2.32338272814418
H         0.80515054322025   -1.39697057840985   -3.15944533910808
C         1.10575225047409   -1.38864289173676   -1.05507906945532
H         0.60727155054485   -2.33148694195303   -0.88914641350644
C         1.65729861306229   -0.65690208177514   -0.01423833309024
C         1.18797206400726   -1.98555104017279    2.07360429472695
H         0.63669356686140   -1.63143891080600    2.94597987705082
H         1.97676145581198   -2.66837016831626    2.40250904116584
H         0.50489331945358   -2.52952579850754    1.42511994145575
C         2.40261277431890    0.18330303079107    1.87348822114264
C         2.69387639808600    0.31610559645205    3.32168810100429
H         2.94480599858812   -0.63854155024023    3.78369682349165
H         1.83091778834943    0.75618002666891    3.83105250569813
C         5.58289574428558    0.46264921001355    3.54662866381068
C         5.61148325124814   -0.36549722207593    2.27242872906658
H         6.57667362276016   -0.86191300692947    2.18407930155839
H         5.47711930472203    0.26701850584457    1.39645228447280
H         4.84006039628339   -1.13447126657104    2.27217021560633
C         5.63472432221853   -0.41587699081166    4.79013153475119
H         6.57747580144932   -0.95923960396830    4.81560077964318
H         4.82861853497991   -1.14731794439192    4.80527877276787
H         5.56402165669994    0.19273518538584    5.68851228640907
C         6.71958964288678    1.47803269131469    3.56678527755770
H         7.67976826009433    0.96720832539197    3.54306779527812
H         6.67100512397613    2.08442958013433    4.46871462422476
H         6.65666603433909    2.14181195424395    2.70610041346717
C         2.85933553326216    4.03913190737939    0.09258624882260
C         4.25780802741988    4.59563409352869    2.42839085312727
C         5.23604537371179    2.67507035726089    0.57828096198007
N         2.74944154291271    1.06196696453742    0.96216437029197
N         1.73676284976144   -0.87606515066215    1.34518393956236
O         6.20025741663268    2.49930772615542   -0.03078136326587
O         4.59553774694967    5.50046404459089    3.03844004921133
O         2.35079063448546    4.66614038487647   -0.72223914540282

