76
CSD_code = MOMQUB | q = 0 | S = 0 | Stoichiometry = C39H27CoN6S3 | MND = 6
Co        1.46857421574854    3.60812720408176    7.85161998030214
N        -0.20689910963518    4.54484495533667    7.65823773978291
N         2.49419602587378    5.17026786055722    7.36749162231959
N         1.68894848526978    4.25999740322917    9.64425088794582
N         3.04496853197290    2.52266608514021    7.96214251045493
N         0.58387081917187    2.01916218470677    8.45678432875848
N         1.18809147977263    3.15456250094747    5.99596465421753
C        -1.41841628515957    4.04958635427699    7.88528501217398
H        -1.57905210625528    3.06176221407720    8.27328606793417
C        -2.42290321738656    4.98445304128543    7.58792669067841
H        -3.47834023020001    4.82493043966896    7.69344483186402
C        -1.77999354702754    6.11726815601363    7.16020749742283
H        -2.22156818849037    7.04886452437836    6.86657331503441
C        -0.38781830926184    5.83357817558109    7.19833204869220
C         0.64686317094962    6.72504884158660    6.90749668543558
C         2.00288804207640    6.41242896514922    7.01645919606245
C         3.09527811032536    7.27397649207773    6.72774002861566
H         3.02738381380543    8.29392829230343    6.40569714644889
C         4.23654188125719    6.54143432749572    6.92916118225718
H         5.25362391645555    6.86065265777725    6.80975340498558
C         3.81846042305468    5.25911925130893    7.31831170928964
H         4.46534859501519    4.43087554994220    7.53591379653789
S         0.76475631095628    9.47667668574172    7.34952772966736
C         0.26952060681872    8.06476115910825    6.46762995562728
C        -0.50255364819275    8.40674599836531    5.39491176673694
H        -0.89878515781249    7.68069694455254    4.70769731267602
C        -0.68932622767795    9.79904070819968    5.26656589720499
H        -1.26028724785791   10.25387712672918    4.47710962380888
C        -0.07497691286881   10.49971355528367    6.25391171938371
H        -0.06095170739564   11.55994418809285    6.41033617866819
C         0.86520386207744    5.06969349648320   10.29861643705114
H        -0.08572354214501    5.37237417041007    9.90312643124865
C         1.38800016005498    5.43753213288157   11.54890081846658
H         0.90890089860344    6.07564469534249   12.26567383410804
C         2.60304491995416    4.81216845975492   11.65761289648804
H         3.28205755704856    4.84151440594489   12.48662015020135
C         2.79259377679385    4.07856089983704   10.45497596078163
C         3.86182944657982    3.22674875877888   10.16536983437913
C         3.95115320941232    2.45874198448544    9.00211677338668
C         4.97467217606372    1.53458494314592    8.66023005405590
H         5.82923887532748    1.28789312344817    9.25800444799664
C         4.65123756433174    1.02905641520071    7.42708308432767
H         5.19047719674220    0.30029156169361    6.85383636054025
C         3.46128469990919    1.66480981281699    7.03888578433305
H         2.93354176743246    1.51035479480489    6.11648708336340
S         5.37555071682413    1.63878746761650   11.89686321940569
C         4.93381615655041    3.14399117605048   11.15193443309625
C         5.69250305577855    4.16944314724928   11.63976928072094
H         5.58917839988905    5.18362560257992   11.29743605977563
C         6.63791673211182    3.75277866982622   12.59970661653498
H         7.32831507345548    4.41900084570893   13.08512389980891
C         6.57479681960127    2.41933895589192   12.84752410262301
H         7.16062448181601    1.83913226896214   13.53226759407669
C         0.59344412637037    1.54721887080751    9.69790334320528
H         1.04614130909299    2.07757339334553   10.51453016466008
C        -0.05419171012452    0.30459888706826    9.78036926528545
H        -0.17338200344209   -0.28332331373164   10.66944269746887
C        -0.48608536739242    0.00931726731978    8.51251312735084
H        -0.99976745561341   -0.87466861647013    8.19028205801347
C        -0.08281916162572    1.09044238196584    7.68386882055450
C        -0.27404172220725    1.20321433214199    6.30449442701334
C         0.30683025507548    2.20334310411108    5.51992072420769
C         0.15016643822415    2.38156377763012    4.11945431205893
H        -0.49595972456963    1.81015971067004    3.48303755827870
C         0.96622142149047    3.42487020078541    3.76344005651096
H         1.11573162423547    3.84016687471770    2.78567648246425
C         1.58331499510117    3.86453909644687    4.94522017070050
H         2.29966338270865    4.66060017156111    5.02047794154774
S        -2.72409706611046   -0.10109799103070    6.17075228507956
C        -1.10016103240683    0.20812122209999    5.63467727315267
C        -0.78873603713044   -0.56969288467938    4.55527554657749
H         0.17679955767864   -0.55297017311857    4.08236050565041
C        -1.84190840412691   -1.41968785690763    4.16108672942316
H        -1.77629835647117   -2.10865071525883    3.33814322275953
C        -2.95014269743367   -1.26792841949686    4.93177795617287
H        -3.89247890883665   -1.77206895187987    4.84985965410322

