97
CSD_code = MOMQOU | q = 0 | S = 0 | Stoichiometry = C50H42ClOsP3 | MND = 5
Os        3.56669097589469    3.33278679043527    1.02870166275446
Cl        3.36581955459466    1.12195023499149    0.18620382344450
P         2.30782002544264    2.80676290091636    2.86054059472236
P         5.41148908196012    3.68275999820680   -0.28655578363485
P         1.89432853508331    4.27746311718798   -0.25281313213159
C         5.07219748690029    2.76557487328731    2.36010049920814
C         4.78834532930427    2.00051058801297    3.50378697832862
C         5.78210927345043    1.64422844235167    4.40395886019846
H         5.52969615768040    1.05296151812338    5.27443840867375
C         7.09133289702208    2.03849259134252    4.19115799961122
H         7.86533607053825    1.75657622591956    4.89016065256390
C         7.40140502349948    2.79481213415749    3.07571765384669
H         8.42213532150600    3.10895860916904    2.90035786169106
C         6.40849588657557    3.15176880300008    2.17366574189529
C         3.36278949724392    1.57840433261152    3.73666007522136
H         3.10260748486962    1.48676354438351    4.79651810791452
H         3.16704068132055    0.61944871145265    3.23942908009902
C         6.75086212446130    3.97407643344948    0.95954075371681
H         7.73717311774781    3.73213240648405    0.55043946223608
H         6.73812501822759    5.04566677231184    1.20288890994536
C         2.17390983074306    4.20064451355651    4.02896316403270
C         1.04000010323797    5.00969719726623    4.02071200229396
H         0.19360645613761    4.72923897914252    3.40944086897052
C         0.98370103134074    6.15070579568494    4.79762428956678
H         0.09568341238152    6.76648252704522    4.78547022349166
C         2.06582235604668    6.50671581126907    5.58611214183556
H         2.02348270586316    7.39983845954647    6.19229656530855
C         3.20258281274291    5.71539647640630    5.59185547503870
H         4.05013919264677    5.99097658873753    6.20313175443985
C         3.26247624502753    4.57344370853748    4.81334132546968
H         4.15871754171950    3.96893856069574    4.81223568503036
C         0.68241469333284    1.99078747157921    2.96002105168252
C        -0.13898154036558    2.06356707876310    4.08004818757124
H         0.16334314545311    2.64763122520540    4.93893140624343
C        -1.34430268284198    1.38573449091882    4.09312401250942
H        -1.98471154248687    1.44774850148341    4.96171594620148
C        -1.72909555682833    0.62487716803864    3.00081265283257
H        -2.67311099978744    0.09956773499563    3.01777301537666
C        -0.90060937631867    0.53016234591086    1.89499605239095
H        -1.19134705645044   -0.07409698793085    1.04867905909408
C         0.30146846210493    1.21243181251503    1.87142071957694
H         0.96230969293063    1.14120104576401    1.01704540361681
C         6.05138439128989    2.24397483927872   -1.19875909169411
C         6.57239854004913    1.16822028196100   -0.48558592135162
H         6.62737388539355    1.21548461289856    0.59263849873242
C         7.00065533787937    0.03667998514466   -1.15368422242170
H         7.40453352790543   -0.79475839612726   -0.59476601892696
C         6.90195139526217   -0.03770085098066   -2.53325300586246
H         7.23453126497924   -0.92442911026333   -3.05311517421619
C         6.36498479730714    1.02205622477797   -3.24464117496802
H         6.27754457468064    0.96272777903454   -4.32043346491944
C         5.93354650014310    2.15642854786560   -2.58214045287767
H         5.50963111231836    2.98211728966675   -3.13669740698204
C         5.78945774301064    5.06347760273965   -1.42802760081144
C         6.94603498023587    5.07395296448501   -2.20229927368440
H         7.62382115435954    4.23234925763682   -2.16623626968086
C         7.22312731933754    6.15250621230761   -3.02057487512732
H         8.11927018796806    6.15204702682813   -3.62429879746122
C         6.35694450537403    7.23380496570223   -3.06923861329638
H         6.57418185499192    8.07106389999962   -3.71614305116874
C         5.21892683975757    7.24150437743742   -2.28202650703411
H         4.54556700650082    8.08616464359801   -2.30573588848376
C         4.94255457475471    6.16242621306322   -1.46251331486597
H         4.05590905254405    6.16946385148376   -0.84180394580798
C         2.18013011448739    4.59425827426511   -2.03092101223134
C         2.76869532999045    3.54022243170072   -2.72539494916482
H         3.02522039738749    2.63243304042381   -2.18815145850689
C         3.02996270548395    3.66007060989176   -4.07763366075354
H         3.46708810873317    2.83297500165520   -4.61826160612644
C         2.73728778958548    4.84370435797183   -4.73558971722313
H         2.95333175928365    4.94508351284203   -5.78915340021130
C         2.17477988204240    5.90145944442008   -4.04116760588994
H         1.95691555759526    6.82790455850689   -4.55312786065625
C         1.88660234153753    5.77877830530963   -2.69355558777774
H         1.45198172626973    6.61166957517527   -2.15960430591268
C         1.72350996497217    5.92995664930094    0.51109162449687
C         2.71836614363031    6.26624099039889    1.42947568050867
H         3.54687445126749    5.56611668943273    1.62415841843186
C         2.68592241064301    7.47207576473512    2.10212918130492
H         3.45837146273190    7.71734517544157    2.81611149040578
C         1.64904484480361    8.35954838662176    1.86176983764395
H         1.61550685107492    9.30269538115356    2.38661061491388
C         0.65281957206208    8.03517848525877    0.95521718382116
H        -0.15735933556174    8.72712322117372    0.77488856804352
C         0.68408849066420    6.82588282211352    0.28288751909525
H        -0.10821205809330    6.56603094102125   -0.40596048125638
C         0.16383506434507    3.69531602066869   -0.32871391170167
C        -0.75677027638414    4.04324990450332    0.65501447564435
H        -0.47802539808195    4.75161622273724    1.42252499074924
C        -2.02730454320257    3.50067092507229    0.64972769912652
H        -2.73545249156279    3.78412153061443    1.41522846734750
C        -2.38844947135798    2.58928367075945   -0.32807028592285
H        -3.38113468948009    2.16385599129025   -0.32995220620637
C        -1.47042786229671    2.22005448626216   -1.29740718557001
H        -1.74498657679055    1.50140296203393   -2.05590187805586
C        -0.19963668299200    2.76352232068580   -1.29729454750741
H         0.51769540129828    2.46370059497173   -2.04778773063576

