53
CSD_code = MOMRIP | q = 0 | S = 0 | Stoichiometry = C20H24Cl2N4NiO2 | MND = 6
Ni       -1.45678283817373    3.13630247852370    3.27317041220353
Cl       -2.93906169174540    1.63661575785482    3.23063446759090
Cl        0.05523740060049    1.66809812077516    3.36165823635888
O        -4.27757613573192    5.38597425258123    1.43586643872215
O         1.31988690097750    5.49385409489676    5.03898675067570
N        -1.51230830847362    3.16162274571140    0.97946631121295
N        -2.89405201890878    4.47905011453463    2.93991677402471
N        -1.40337408795257    3.23315363946015    5.56496463533516
N        -0.04805788726571    4.51721206394001    3.56469154987974
C        -1.00082555291032    2.29065113777360    0.12257686295282
C        -1.60380242539799    1.97826646906451   -1.08797144008876
C        -2.78626692917748    2.61464612914036   -1.43198361249621
C        -3.34152819104929    3.51395200840810   -0.53718618193286
C        -2.67536622133015    3.74449734977095    0.66084290914492
C        -3.25970210300610    4.55877961546123    1.71915024144425
C        -4.69157636894819    5.95830276321791    2.67236533804189
C        -3.77874578901559    5.30431019212982    3.74774637904221
C        -2.98444885946807    6.34095164064470    4.53916103071867
C        -4.57683405323864    4.40942613731515    4.69510634185928
C        -1.89824108432010    2.37924799361827    6.44833215497397
C        -1.28978524750045    2.11587591602416    7.66779298113270
C        -0.11959220234182    2.78469426400326    7.99148458243093
C         0.41879638176007    3.66629703657245    7.06914958822894
C        -0.25154665116089    3.84747644536491    5.86500601662603
C         0.31707469812560    4.64017323215279    4.78202781577100
C         1.72437257691731    6.03404310001023    3.78502266894143
C         0.81916405875303    5.33555614538828    2.73133052137789
C         0.00283340044364    6.33682482339527    1.91693473499028
C         1.62928376960071    4.43074186720551    1.80392774493879
H        -0.07900496193205    1.81466860907121    0.43121432931692
H        -1.15044317340781    1.25478886785581   -1.74689227328417
H        -3.27568268938322    2.40423143286871   -2.37128060193362
H        -4.27391244924633    4.01746250648173   -0.73635344670521
H        -2.81140072907539    1.87730315670627    6.15552083254865
H        -1.72948235761744    1.40458652475561    8.34885730204190
H         0.37377098419314    2.61232506291795    8.93645501527801
H         1.34154521083964    4.19306231617480    7.25236903972780
H        -4.56254315783212    7.04336406667505    2.61240984307006
H        -5.74888694142295    5.72860707475160    2.82444279629104
H         1.58105182662853    7.11854671270502    3.81233453369401
H         2.78446751266585    5.81377313341885    3.63797690824146
H        -2.27359055354801    5.83465661643027    5.18654869551914
H        -2.43995433565882    7.00367690311260    3.86944324270237
H        -3.65967022042659    6.93563657112094    5.15005231808659
H        -5.30982590657182    5.00083333096177    5.23950528409400
H        -5.08058078657196    3.62465185716030    4.13554960245667
H        -3.89754042013861    3.93674937548222    5.39731201228685
H        -0.55089783109333    7.00657902677030    2.57195183905001
H         0.66462719028612    6.92769171120405    1.28793123348187
H        -0.70136939415904    5.80132293011974    1.28595159881571
H         0.95623304456599    3.93054499698481    1.11490554477027
H         2.35159110653352    5.02040624741481    1.24358498743056
H         2.14662449231190    3.66783343391429    2.38103710891791

