85
CSD_code = MOMSOW | q = 0 | S = 0 | Stoichiometry = C29H52IrOPSi | MND = 6
Ir        5.21899242301558    2.34375756477006   10.22257111709845
P         5.55784324115918    0.02923590466498   10.25081202297419
C         5.62696290531633   -0.74982891192206    8.55474944737042
H         5.86112233221091   -1.81595321746480    8.65240829383514
C         6.73190112984543   -0.04901196628287    7.76153531456839
H         6.49591755560926    1.01716664674883    7.72144208074538
H         7.69421504840172   -0.16444008975957    8.26511797619172
C         6.83260997548170   -0.59497486935339    6.34037779707385
H         7.62666831303689   -0.07420758408456    5.80085063421502
H         7.09163851651632   -1.65664966840374    6.37161237808117
C         5.50271825608326   -0.41911219606009    5.61740970399834
H         5.57018889191880   -0.81646279220245    4.60235799460108
H         5.26599354831320    0.64433485903262    5.54897942714489
C         4.39948441189953   -1.13322012777896    6.38862374536780
H         4.61331897590161   -2.20570071862173    6.41094883858476
H         3.44186597921541   -0.99641540433137    5.88260008207232
C         4.29739473253371   -0.60429637089640    7.81736309099203
H         4.00696938567163    0.44718345684438    7.80984727212378
H         3.51555076134848   -1.15843447086310    8.33632378699868
C         4.11273515799771   -0.83257870631410   11.04535557038605
H         3.31125816221900   -0.60425600482789   10.33417894110545
C         3.69611869175814   -0.16132631099350   12.35417911009057
H         3.64801470240056    0.91776643118303   12.19182883827029
H         4.41551370586606   -0.36052009849174   13.14863129335294
C         2.32726849690655   -0.68709518928475   12.77784074805792
H         2.02410353433177   -0.22355755341890   13.71926881014516
H         1.59069330681278   -0.41695891110359   12.01932837826033
C         2.36517789580160   -2.20475867196034   12.93859697401905
H         1.37621730987452   -2.57554498651007   13.21596868390874
H         3.05615174829990   -2.46674463741929   13.74431987127708
C         2.82288658713653   -2.87306438789013   11.64506020574974
H         2.86728960132149   -3.95644128856284   11.78137742716639
H         2.09805724991356   -2.66513387053447   10.85499960291231
C         4.19426906923860   -2.34526712899897   11.22354849879842
H         4.50308925514276   -2.83029348971192   10.29536013364548
H         4.91867127844762   -2.59752305182376   12.00037616944840
C         7.15075019517489   -0.58969055292541   11.03905839082904
H         7.90011105463596    0.12159146550398   10.66840829717359
C         7.65409328111260   -1.99258651966856   10.70070476569891
H         6.97480746952069   -2.74787089524552   11.09517644800821
H         7.72836559637788   -2.13222936107003    9.62230657210551
C         9.04239554925810   -2.19703019586096   11.31085818516548
H         9.74003046107408   -1.48553616917371   10.86233498673208
H         9.39885919654397   -3.20320739641310   11.07961443908757
C         9.01897065780218   -1.99130794590106   12.82211265261437
H         8.37888203614857   -2.74859902240277   13.28078434230249
H        10.02470716330858   -2.11512660462032   13.22854125439527
C         8.48244516960550   -0.60404422905474   13.16197350824471
H         9.15749909895763    0.15636661756145   12.76290993269198
H         8.43788422639875   -0.47730713314374   14.24567544584820
C         7.09274206505450   -0.42473345137671   12.55698583374048
H         6.69011045243652    0.55925376255224   12.80477993538076
H         6.43251124251469   -1.18067114039272   12.98305863633844
C         4.34406592356249    4.22317030669805   10.99603943878115
H         3.28511468705805    4.09524173209923   11.16023522486174
C         4.91653486574591    4.46102031928888    9.76774760467634
H         4.36778960874577    4.56933564378870    8.84284696524760
C         6.31513981822890    5.01531704844018    9.92328541196807
C         7.27230268004455    4.18298436751282    9.07147387699935
H         6.93987573615010    4.10191773349390    8.03644486951578
H         8.28579932265527    4.59649026190953    9.07579350014433
C         7.23733939622527    2.87460762570308    9.83044842469975
H         7.93167564054740    2.09717165373650    9.52760106943865
C         6.93142466955901    3.12796054348439   11.18767508298803
H         7.38170243318796    2.58510245512791   12.01154142390773
C         6.60592795982044    4.59963479934661   11.38187806939540
H         7.41324356206261    5.15456811895924   11.86437234466753
H         6.36660797996147    6.08933296653875    9.73272563573122
C         5.25632083641482    4.70157990019523   12.09562737687606
H         5.21695334897230    4.09343840163687   12.99917855440299
H         5.00925469200207    5.73372802717002   12.36328701444423
O         3.28073989397905    1.77539374413518    9.73076004375527
Si        1.75694031633373    2.08025161595317    9.46340221103809
C         1.47057756039574    3.41106008326081    8.11302760751823
H         2.02604366946772    3.18020815754295    7.20805656454849
H         1.78699984042310    4.39575203094633    8.44743422527563
H         0.42202157225937    3.48317281347390    7.84165514754764
C         0.82023022975129    2.67737816745573   11.03141911983637
H         0.89313896291098    3.75403709430070   11.16238391620586
H         1.21276157359301    2.21265107440020   11.93142126327196
H        -0.23644254135020    2.43549298928650   10.97540614190901
C         0.86668493367270    0.49210136135737    8.86374476739287
H         1.27716199595860    0.13211721878196    7.92557978905634
H        -0.18926413127880    0.68573224967645    8.70482788377209
H         0.94169591007993   -0.31579392144988    9.58614554314243

