95
CSD_code = MOMTEP | q = 0 | S = 0 | Stoichiometry = C42H32LaN7O13 | MND = 12
C        12.54237361059414   13.55702783232598    5.04049548319875
H        12.53114904597756   14.44483313316536    4.42276191283299
C        13.75709748717824   13.07789112108764    5.56264246937691
H        14.67927594252595   13.57806434602104    5.31056613220671
C        13.74271561307417   11.97598712831850    6.37016682753940
H        14.65352876087747   11.56252869755536    6.78073865943919
C        12.50775336204333   11.37461343035228    6.69026055874624
C        11.34016352996833   11.92435728936993    6.09801483166259
C        10.07547292313771   11.33834330934977    6.41284144931430
C        10.00944399263305   10.27728237219277    7.28251577757869
H         9.06706415145692    9.81766205683755    7.53070133928681
C        11.17648231150502    9.74529816658830    7.85036592447425
H        11.08677164776000    8.90346378060967    8.52007663786738
C        12.40144486727288   10.27310262639198    7.56342114910829
H        13.30061335338641    9.86396220188552    7.99905438143340
C         7.71915920533930   11.40916960751682    6.08025888458675
H         7.48410105161038   11.51747999718423    7.14850938468836
H         7.65116803069380   10.34928107598814    5.78625121298598
C         6.73449436272090   12.22756210034801    5.24535218741602
C         4.38807003019154   12.65869646909829    4.81210090522082
C         4.43942888336881   14.01964741006803    4.64345715834888
H         5.26826611699349   14.59039003097174    5.03339093254430
C         3.40739722670879   14.68338299182635    3.96597086424981
H         3.47226693035861   15.75333003582780    3.84351813999412
C         2.33425898796262   13.98932907674554    3.48246277690449
H         1.53142078764009   14.49896305309325    2.96947203277613
C         2.25187989454547   12.58986506217610    3.64148038157723
C         3.30094589954536   11.89835867531016    4.30579660122652
C         3.21812362057798   10.49375856135758    4.41597673331760
H         4.02250255652578    9.94359260606078    4.88227493557637
C         2.14293193042504    9.81175691145480    3.91719701540211
H         2.09506530940640    8.73654841399238    4.00695180990636
C         1.09659286962466   10.49733646845159    3.28348774259251
H         0.25236539156989    9.94275331056673    2.90166214261220
C         1.15481588097617   11.85514165112295    3.14462342095202
H         0.35859524022356   12.39117230768246    2.64842498528612
La        9.49767372865274   13.38481923819669    3.33878473594873
N        11.38158925511409   12.98837033370414    5.26137145326513
N         5.43483827927962   11.99408747119756    5.50037832192062
H         5.17494224552148   11.24592970412483    6.12598744485734
N         8.13577849272462   15.20173488382130    4.68633528932315
N         9.40689914229091   10.60795417415489    3.70891251815777
O         9.00504227330149   11.91412497891649    5.79644924163457
O         7.11544658090697   13.02769735708489    4.41007805817782
O         9.04078505782580   14.59401478249288    5.25826903771555
O         8.14524020465150   15.26237863844735    3.45594653969270
O         7.25579631279336   15.72944461046175    5.31665527415250
O        10.52397468761808   11.09620904986017    3.54749548157642
O         9.26828941322098    9.55951971906714    4.29638840450228
O         8.42894948141960   11.17490185084084    3.21853491127005
C         6.44248963264721   13.57333641144700    1.63854367670244
H         6.44599088377348   14.44671433188856    2.27659845326744
C         5.23392538669372   13.10848488189223    1.08894636870693
H         4.30828953205656   13.60161457174981    1.34250465351393
C         5.26027489802236   12.03219378654431    0.24811773935424
H         4.35670635269145   11.63518370094406   -0.19347612527844
C         6.49909938877833   11.43326998470049   -0.06253461656192
C         7.65742868868221   11.95880381644072    0.56893769107339
C         8.92365237767829   11.36003515553624    0.27915019659576
C         8.99701923765859   10.32119530229716   -0.61815871335532
H         9.94046718417211    9.85809266907237   -0.86052362441038
C         7.84020176256319    9.82322186941006   -1.23778421335670
H         7.93883853730608    9.00336890640459   -1.93328159890703
C         6.61459981471742   10.35631740952101   -0.96569399982531
H         5.72268884531554    9.97153419557658   -1.43675945326264
C        11.27582383784793   11.43575374907643    0.61391940222476
H        11.48790500404278   11.61066905676634   -0.45099067026545
H        11.39258916084405   10.36596843912581    0.84511183913182
C        12.26017214542568   12.23167819062758    1.47334469701450
C        14.60326400835963   12.68049725568004    1.90178823540649
C        14.55740186185069   14.04353908116981    2.05067428368869
H        13.73503555985261   14.61276259113871    1.64447340964169
C        15.58642766022140   14.71082950664202    2.72960630794490
H        15.52710328386516   15.78279819391711    2.83586763378786
C        16.64916588421911   14.01694209312817    3.23596041814047
H        17.44937689570770   14.52911252127138    3.75054715395922
C        16.72250347307887   12.61428462849874    3.10180205077082
C        15.67711631964414   11.92034798133532    2.43435545352725
C        15.74802906216126   10.51348250453595    2.34918727517578
H        14.94427893173999    9.96510868252254    1.87967737464258
C        16.80831513532430    9.83029947159290    2.87727273046968
H        16.84711499105475    8.75311279800563    2.80834899964166
C        17.85124347929088   10.51756147905239    3.51501309110253
H        18.68382812561926    9.96195510709438    3.92011837262294
C        17.80485877489532   11.87829980496324    3.62807895948290
H        18.59880569369357   12.41538660304109    4.12673841583352
N         7.60533810950141   13.00910538957582    1.42020909487040
N        13.55992602511357   12.01293435402868    1.20691724971058
H        13.82697066879860   11.29258984410495    0.55241538775548
N        10.88280185909977   15.18010744295844    1.97600628566077
O         9.98472888984358   11.88774046192800    0.94703269563498
O        11.87925594770615   13.00175857538663    2.33441112367556
O         9.97998354481754   14.57527976727517    1.39854674972929
O        10.85404173089589   15.26602918218872    3.20395058078780
O        11.78197545107646   15.68207814787345    1.34979847012522

