85
CSD_code = MOMTAJ | q = 0 | S = 0 | Stoichiometry = C40H39IrO2P2Si | MND = 4
Ir       -0.37382478567684   14.16178922504652    2.99693323433609
C        -1.68876754883648   14.96928879076847    3.97938892495227
O        -2.52182340928657   15.49624764126205    4.59870684177462
O         1.11316097018985   13.26912392367414    1.90112347122545
Si        2.28775656954618   12.74939882042022    0.99215870567174
C         1.67378336703118   11.62780492161991   -0.43694857237765
H         0.90551784504412   12.12048540511074   -1.02581896963124
H         1.25708195798014   10.69139330558583   -0.07717226217344
H         2.49179695421895   11.38297901047723   -1.10749429598942
C         3.54226169846066   11.68736641716583    1.97980497500209
H         3.10625532217774   10.75294519296904    2.32195399978186
H         3.90763687260602   12.21392697536618    2.85633075296253
H         4.40213005204159   11.43949917089073    1.36527581203808
C         3.27738569583596   14.16797190619306    0.17584175657743
H         2.64336977788864   14.77557004346232   -0.46328263152910
H         4.08271130995502   13.77667648415824   -0.43825871572637
H         3.72066569757726   14.82447311652747    0.91818216594088
P         1.29213729840664   14.31457680723937    4.58935759199306
C         1.92601564039495   12.75718253104411    5.28655273693056
C         1.52972936759148   11.55794709047268    4.70946481988388
H         0.87475428933396   11.58451212416236    3.85119664047043
C         1.98577330585358   10.35533315172167    5.21806224439507
H         1.67835719908545    9.42434584424345    4.76439730563782
C         2.83807501383791   10.34511919862985    6.30938975361687
H         3.19883301858419    9.40749485384048    6.70632762843736
C         3.22579087532577   11.53878577074718    6.89817520856622
H         3.88532465276275   11.52947270479163    7.75401917148492
C         2.76870974094211   12.74290199426548    6.39505804796821
H         3.05867695950503   13.67363521711523    6.86439029408382
C         0.99505463754519   15.23184719236882    6.14354519320039
C         1.75370193241335   16.31214700764331    6.57356530853679
H         2.57949748012561   16.66799114145601    5.97353605788557
C         1.45295877429933   16.93546154660746    7.77327143135002
H         2.04693112058394   17.77537642726331    8.10362221769183
C         0.39788176510003   16.48600983944951    8.54791897258297
H         0.16754906013430   16.97530312008952    9.48270994738883
C        -0.36550244541457   15.41002031273544    8.12081721337365
H        -1.19251660535933   15.06153859630416    8.72132475733464
C        -0.06993299014371   14.78921974837090    6.92352463401512
H        -0.66266630301531   13.95478857137309    6.57133327617708
C         2.75145873973439   15.17068177903344    3.92350825146843
C         2.48525746009298   16.33022702520425    3.19956731102687
H         1.45440373765582   16.64171963258407    3.07680049956456
C         3.51788392906313   17.06449150201703    2.65034423333419
H         3.30711347551477   17.96339543991153    2.08940019964529
C         4.82758312791618   16.63759449187788    2.81079481238796
H         5.63781865673704   17.20290110060509    2.37404813710255
C         5.09609967275894   15.47960899862790    3.52065069719318
H         6.11591665489579   15.14233419377648    3.63664030970662
C         4.06300087328805   14.74566465584133    4.07930055741402
H         4.28140631617014   13.84247049445516    4.63069710272292
P        -1.64230173590289   13.85793405459236    1.08682306197918
C        -3.30094252438131   14.61796194386697    0.98101883169241
C        -4.23300973441137   14.20652234673210    1.93044139592379
H        -3.93728719022450   13.47204409721581    2.66834342872422
C        -3.66018287972701   15.57432728150171    0.04082783947540
H        -2.94153135180268   15.90638760435680   -0.69520398540743
C        -4.94084099414558   16.10179242583789    0.04434597934913
H        -5.21599742536268   16.84438473375677   -0.69061014572747
C        -5.86603246074738   15.68109624917468    0.98368798527025
H        -6.86342425794252   16.09522590397259    0.98237969766283
C        -5.50988917845179   14.73151383643472    1.92957943327694
H        -6.22866124336296   14.40711444167299    2.66724715826802
C        -0.81362164902462   14.55303693012560   -0.37553488052050
C        -0.10721317271538   15.73429470591609   -0.17347833491370
H        -0.07355484041051   16.15775831866140    0.82317495903771
C         0.54862454091224   16.34469823567299   -1.22529783517187
H         1.09876444679704   17.26036694017136   -1.06355280453681
C         0.50936507770908   15.77207997104803   -2.48711501446490
H         1.02963870006241   16.24018357339090   -3.30991840077049
C        -0.18825451549596   14.59341727504471   -2.69158202621400
H        -0.21205125810508   14.14405328261070   -3.67388227824851
C        -0.85147519394306   13.98245386870999   -1.64100305310555
H        -1.39193518699947   13.06093234238441   -1.80638919560434
C        -2.04735932697680   12.14673250727574    0.61122124515986
C        -1.29428458403621   11.11514807470331    1.15792359779274
H        -0.48509867593098   11.36019345946414    1.82922272820344
C        -1.56464832364292    9.80089356407563    0.82279536994506
H        -0.97387223464523    9.00200535978720    1.24707034740119
C        -2.59268228271481    9.50890460285850   -0.05807148550496
H        -2.80519104146637    8.48332148494937   -0.32243475029295
C        -3.35314888853479   10.53346993183027   -0.59942406158249
H        -4.15777994675446   10.30531998497489   -1.28357690084612
C        -3.08727030054963   11.84901386596649   -0.26564960678418
H        -3.69042514557476   12.64597634471165   -0.67951605689070

