57
CSD_code = MONCUO | q = 1 | S = 0 | Stoichiometry = C16H35IrN2P3(1+) | MND = 6
Ir        8.28473699964934    4.90638512950451    7.62466894496862
H         9.48706036719792    5.85425726587807    7.74149974027342
P         6.41760893163533    3.47374329492612    7.22893376801607
P         9.43372969580770    3.29462806273603    9.10491873674974
P         7.32424093096373    6.25955966099505    9.28943061585008
N         9.25704304490074    4.03903058711142    6.04434559785601
H         9.96735746764842    3.31061776555040    6.09084700339233
N         7.70006340528727    6.06392566902889    3.62583911695919
C         9.02698893468809    4.49730582839449    4.86278398521317
C         8.06340662820626    5.57838025290341    4.81270922803366
C         7.58672176135386    6.03577918512800    6.05951627877498
C         6.67960333672233    7.09212324767965    5.98572724985280
H         6.25096162695638    7.51502650542096    6.88331171231554
C         6.31130018933714    7.61790519345090    4.75877881734276
H         5.61486682173071    8.43998512588947    4.69675268631798
C         6.84786409136075    7.06221102179766    3.59991601690815
H         6.57818328771277    7.43041811367549    2.62003143256148
C         9.68795133543787    4.01058673523877    3.62769235162650
H        10.18852858976290    3.05640395783064    3.77974810239682
H        10.42282141691691    4.75016592699061    3.30994014892299
H         8.95624203189878    3.93496677656461    2.82673713060652
C         4.85356537231984    4.18890922792604    6.59714170727276
H         5.05473288780078    4.74966178066047    5.68596538855981
H         4.41757089099397    4.86205305412963    7.33057911168940
H         4.14581329315913    3.38951372972608    6.37813814699759
C         6.68083483447657    2.20088746133625    5.93611630513002
H         7.55489592592936    1.59369659829687    6.16240188837741
H         6.83696473857292    2.69598337450411    4.97834787164403
H         5.80446855931621    1.55685165608904    5.86588651274751
C         5.77157721334489    2.43447955678137    8.59738027771772
H         4.90544498576282    1.86445258545310    8.26285538840048
H         5.48183061918802    3.06603904958813    9.43566637284167
H         6.54393494275264    1.74523016161970    8.93354501643234
C         9.71014489502641    1.62993699546120    8.36601288934634
H        10.20868316932402    1.70751856131112    7.40256873597903
H         8.76141057005751    1.11439805481504    8.22937117005648
H        10.33973207353306    1.03919756190938    9.03075197036440
C         8.95376832885015    2.75098453477770   10.79845858311298
H         7.89503013248509    2.50633714930675   10.84396930849582
H         9.16485704940717    3.54068019680090   11.51418224334992
H         9.53256762103309    1.86956855512909   11.07129631285116
C        11.17209407537531    3.77675704432106    9.42279265029498
H        11.69110185908528    3.00160492683397    9.98548394205086
H        11.18970240488379    4.70877469790784    9.98417559614355
H        11.67946044102539    3.94570769757941    8.47499437001212
C         5.50473549552901    6.44475638172574    9.46048509267128
H         5.06308700517439    5.48284847969305    9.71377065486417
H         5.05758465036871    6.80607292861114    8.53875032601940
H         5.29258425716271    7.15319914653184   10.26036102824028
C         7.73065816924868    5.90884040809309   11.04151700918455
H         8.81050359122004    5.83835389447389   11.15027392042601
H         7.26861330721507    4.97755046315075   11.35883774523796
H         7.36088430364663    6.72193340222101   11.66528824039951
C         7.88841472223871    7.99857490621238    9.21596784251325
H         7.31681919153012    8.61074334881592    9.91251079636501
H         7.79600383820163    8.39607086617918    8.20992452423165
H         8.94164368958197    8.01952625533675    9.48930239504854

