73
CSD_code = MONFOL | q = 0 | S = 0 | Stoichiometry = C40H26FeN4O2 | MND = 6
Fe       -3.78852257337070    0.27349294988627    8.23477130984465
O        -2.78708188405261   -1.36766651793256    8.59684564409313
O        -2.08178141855339    1.16166430622366    7.87930971596498
N        -4.68272888831526    1.89584177067798    7.93415543681525
N        -3.58069695174069    0.88623940573252   10.02884821806673
N        -5.39239956642992   -0.65509987333158    8.52908304395178
N        -3.91824123994045   -0.36019692282323    6.44082667737604
C        -5.29533504846487    2.33805907534985    6.85055686896864
C        -5.85863574323349    3.61188253827684    6.74956748339049
C        -5.78812743810885    4.47143663498452    7.81671494449496
C        -5.15880321272956    4.03107744981118    9.00079937436050
C        -5.03975515422179    4.81925958516006   10.16247999177816
C        -4.42296621544766    4.30813926085614   11.27425517331098
C        -3.91334352844672    3.00755048997323   11.29471478739989
C        -4.00342979048632    2.19314956847558   10.17601176117319
C        -4.62337355760311    2.72310332361409    9.01093075976086
C        -2.96019324082254    0.25691698792479   10.99639428499343
C        -2.41875645984578   -1.03888534305619   10.94759788009632
C        -1.87793819998533   -1.62865998615002   12.15106176571930
C        -2.06360678611359   -1.08189660255480   13.43402151248966
C        -1.51681442597243   -1.65772221830048   14.55546637118685
C        -0.75981146795694   -2.82421923880219   14.46069939237156
C        -0.58882212565689   -3.40744554756349   13.23112193645539
C        -1.14336839857345   -2.83842020796533   12.07591653315189
C        -0.99093348972925   -3.48136544825948   10.81644566391255
C        -1.55916825218412   -2.97751109384419    9.70073734907618
C        -2.30606657240462   -1.74873965304558    9.70526565741568
C        -6.15162847479837   -0.71545088641971    9.60841460132998
C        -7.28932829069633   -1.51934918504531    9.70600684724925
C        -7.66286796733104   -2.29870089137423    8.64028804665200
C        -6.88946317782087   -2.24911119929234    7.46070610102469
C        -7.18317773802150   -2.99355647867714    6.30119289054568
C        -6.38355867663421   -2.87763979673477    5.19441521135124
C        -5.27983945446275   -2.02140062074576    5.17622250231380
C        -4.94889044562168   -1.26784495517835    6.29224188041397
C        -5.75950739842290   -1.40018079284640    7.45328141376445
C        -3.06451771438323   -0.13204514837969    5.47320687203233
C        -1.93511591556788    0.70234301436496    5.52614420769604
C        -1.16966657366357    0.93895123861761    4.32343672704466
C        -1.61367575604588    0.57801545835528    3.03818153415818
C        -0.85033143668652    0.79901455918861    1.91715745084353
C         0.40054477301860    1.40608352776154    2.01502300165536
C         0.85066259803369    1.80616931388836    3.24735093126065
C         0.08409121090942    1.59511742546099    4.40216782387384
C         0.54843447827853    2.05626075935012    5.66496357559588
C        -0.19753051781358    1.91026435235297    6.78024738382784
C        -1.47226700129708    1.24485809314335    6.77174403899549
H        -5.33534572025664    1.65663049456451    6.01432449078427
H        -6.33520546417391    3.90611294627736    5.82727201395680
H        -6.20240714772544    5.46719311208205    7.76921879247917
H        -5.43906959584631    5.82212265971501   10.15976762824150
H        -4.32963194285947    4.91464289585634   12.16338107109487
H        -3.44861784036129    2.66040829806271   12.20426882018522
H        -2.81946237723378    0.79004156994536   11.93140046654990
H        -2.66536232661674   -0.19637108349492   13.56921426906427
H        -1.68096544609179   -1.20468359577274   15.52292090418100
H        -0.32870674877812   -3.26549143063968   15.34693500795936
H        -0.02519626674428   -4.32499667698701   13.13451471108347
H        -0.41950065939272   -4.39886962795080   10.77720508417307
H        -1.46462986600992   -3.47010041658575    8.74418758710530
H        -5.84118308453934   -0.10639277159449   10.44384833096551
H        -7.85513992271021   -1.52312382711324   10.62479034152527
H        -8.52924036142156   -2.94116460344803    8.68566908980006
H        -8.03986752535937   -3.65027778939935    6.30185869363482
H        -6.60738660829463   -3.45240582644050    4.30748090851495
H        -4.69540111326374   -1.96804552784284    4.27103887386555
H        -3.21866211619775   -0.65551589817303    4.53479002716247
H        -2.58677029089797    0.13199100255044    2.90121929916164
H        -1.22686490220585    0.50492202537805    0.94767801091345
H         0.99581665064122    1.56940491436786    1.12903723276944
H         1.80735299404714    2.29995994190359    3.34647238437117
H         1.51199200113998    2.54580755788222    5.70716968243569
H         0.13879079056895    2.27601917574334    7.73924369877919

