48
CSD_code = MONHEF | q = 1 | S = 0 | Stoichiometry = C22H18N4O3Re(1+) | MND = 6
Re        5.46661329374297    1.48457560637428   11.72252437451448
C         6.11021578307054   -0.32494718587588   12.08878636760510
O         6.45764709474504   -1.37970053796591   12.35343424987692
C         4.65150200002881    0.93232045618140   10.03019685597453
O         4.14263700769324    0.63398673392663    9.05569047176558
C         7.16203774542521    1.91421832035190   10.84864009359233
O         8.14848950791516    2.21677950886972   10.36008231018539
N         4.61447446709819    3.45931084003843   11.57999963023880
C         3.46737116290602    3.61282094315601   12.27790957159738
C         2.78790330907495    4.84543582629381   12.37218444413567
C         3.34316795912417    5.94656649184878   11.69973899283118
H         2.85256773789537    6.90653298337580   11.74760761059164
C         4.50147788557222    5.77014359401054   10.98065651260049
H         4.95252591664894    6.58609672586206   10.43983956515950
C         5.10351858750623    4.51110541631995   10.94631430655358
H         6.00964728078193    4.35832918376578   10.37431861858572
C         1.57942952569416    4.91672759353507   13.12367483124758
H         1.07877774651024    5.87045249883314   13.18873398739356
N         3.59739131338716    1.28979740136611   12.77731489502195
C         2.92342633125033    2.45268796387108   12.91804121787196
C         1.71356091237119    2.55405051518838   13.63630434020319
C         1.20312875637397    1.38190711603140   14.21812157795852
H         0.27961979938053    1.41859222692691   14.77517092524051
C         1.89210444742919    0.20391197948183   14.05202542379965
H         1.52778921701145   -0.71978681013752   14.47127519704183
C         3.08345502559934    0.20181287072924   13.32441113394134
H         3.62846300614794   -0.72189854721542   13.17834310183743
C         1.06482396347521    3.81924457678091   13.72908806544001
H         0.14386905200818    3.87655681705275   14.28858887949963
N         6.24745023113771    2.19777928769968   13.67013984574654
C         6.96657042694429    3.32473906858128   13.77702423606301
H         7.10928726482306    3.89804926758253   12.86945697504288
C         7.52742945025597    3.77463481039619   14.94265665102737
H         8.09119159511432    4.69061335618527   14.91917330819775
C         7.38026049579747    3.03554631415561   16.13845818805350
C         6.60293215352993    1.86140442010232   16.01633493524220
H         6.41936887379579    1.22359008579364   16.86301779624655
C         6.08478228130464    1.49720523452776   14.80197883627734
H         5.51118376922151    0.58157655724205   14.72872180436591
N         7.93889020897688    3.41587401119658   17.29685190124684
C         8.76770843040142    4.59904008835092   17.35836835422341
H         9.60867564032293    4.52384515342946   16.66498468031838
H         9.16654728930401    4.71187597255666   18.36211646772392
H         8.18978949515828    5.49518532283089   17.11883379068259
C         7.77148514210176    2.61643793960482   18.48991966701301
H         6.71535776052693    2.52908800569986   18.75583149940982
H         8.29005555456286    3.08797426988299   19.31932071676010
H         8.18649810083534    1.61480972518377   18.35309279404871

