91
CSD_code = MONJUV | q = 0 | S = 0 | Stoichiometry = C43H42N2OP2Ru | MND = 8
Ru        7.28562834612179    1.53288226594538    5.57683086064713
P         7.09311493521053    3.63899805408387    4.77202618507862
C         6.36380970328188    4.01414897152333    3.13895352492007
C         4.97549218718667    4.11933698768984    3.08358156501209
H         4.41098023194399    4.05038615190801    4.00429443185418
C         4.33244487277812    4.33138001737282    1.87967947941418
H         3.25583162050133    4.41522932024074    1.84946358539621
C         5.07029170987301    4.43672655612290    0.71099740613624
H         4.57078496952026    4.59990972064817   -0.23242616278443
C         6.45075568839903    4.33927770894585    0.75686150804372
H         7.02936904923213    4.43159737438960   -0.15129660898646
C         7.09624032882675    4.12646391366301    1.96264528147201
H         8.17472997852144    4.06748971165434    1.98362404032373
C         6.27978044390999    4.95494076099228    5.73941122605670
C         6.23961262522415    6.26538906000571    5.26916156022801
H         6.67224546495510    6.50686022902580    4.30720472635534
C         5.63790479219703    7.25139630926821    6.02751410086625
H         5.61169165847165    8.26845440295942    5.66341672044696
C         5.06708832306829    6.93886413759632    7.25250436337157
H         4.59964418791633    7.71427087398389    7.84131795119870
C         5.09394789306370    5.63505224287214    7.71706596964350
H         4.64820409896911    5.38271968262888    8.66768907891336
C         5.69720448692744    4.64542990866433    6.96070975467604
H         5.73398509149661    3.62666329928047    7.31974151606886
C         8.80850915670816    4.35722078534903    4.67255865248156
H         8.81355658787948    5.25234688125533    4.04311610634738
H         9.01951708323917    4.65876781443969    5.70519508989172
C         9.84525430940404    3.33732711645412    4.21167948932422
H        10.83004879273605    3.59062996560447    4.61540086771716
H         9.91955356812338    3.31809876012285    3.12059223866612
P         9.38334562902902    1.60997388422406    4.77371990884648
C         9.76826119987768    0.64013315977865    3.27751032971745
C         9.05095793933329    0.95179814655843    2.12450244818625
H         8.33513590756131    1.76431275321589    2.15574922031953
C         9.22693281249888    0.21881335328489    0.96755596322481
H         8.67334994695622    0.47468477386864    0.07554862775082
C        10.10401016153293   -0.85503170092409    0.95740641710482
H        10.24075655717958   -1.43369751239473    0.05595796539751
C        10.79188280557517   -1.19474029864737    2.11014444721830
H        11.46171262287111   -2.04250438872999    2.10919977380115
C        10.62463080190005   -0.45544758138372    3.26886651761616
H        11.16421254398133   -0.72801927909307    4.16534305982533
C        10.80401631022273    1.18975984387369    5.84207447474067
C        10.55939375141972    0.64232319694974    7.09481477486394
H         9.53228951120190    0.49703638304466    7.40487320675580
C        11.61074562401791    0.31733932597237    7.93452493006065
H        11.41376803149783   -0.10281583373745    8.91006874891017
C        12.91502424086571    0.53670060500794    7.52408274954709
H        13.73742728294557    0.28833797938433    8.17835572153260
C        13.16671737931023    1.07283797308388    6.27014384204730
H        14.18489287869478    1.23623612945396    5.94791237997248
C        12.11841399337932    1.39599002724811    5.42904931871091
H        12.31697976840872    1.79690137930343    4.44366952310892
C         7.99583477902767    2.49790604709096    7.15354657866690
C         8.31168214560692    3.01919011936957    8.21274821585650
C         8.62151900051688    3.62733404365703    9.42815669075858
O         9.81853514956898    4.21343625363683    9.64514534227539
C        10.72950270826543    4.21147824635308    8.57439094378254
H        10.89374519029501    3.19957783586557    8.18977221203181
H        11.65933763144904    4.61743688645346    8.96828983851470
H        10.36966761619247    4.84259285702918    7.75447191279920
C         7.68493904114613    3.63836346935449   10.44829528236897
C         6.43990524094831    3.03765828590333   10.23317277879166
N         5.42107238095448    2.53538392159850   10.04624826528195
C         7.91943109999564    4.23361780693293   11.69565298482232
N         8.09418512880853    4.71857496250030   12.72264823555657
C         5.31632878740507    0.76985285076388    6.30126563202754
C         5.36326613931718    0.58838105688798    4.87204346177708
C         6.44325845055162   -0.27770016234313    4.56403637621285
C         7.06858922181166   -0.66225385975798    5.80710545658430
C         6.34422662035345   -0.04783842626684    6.87237230184360
C         4.16440380166543    1.35354734700519    7.06542412216753
H         3.72875180949060    2.20500184862766    6.54419693711164
H         4.47140671629723    1.67884415370531    8.05784737174378
H         3.38814929832138    0.59345799439686    7.18442515757441
C         4.28961721193019    0.98089077568329    3.90280461651248
H         3.67462317577622    0.10484695961527    3.68237841540365
H         4.70330891628264    1.34568846249760    2.96267615586418
H         3.64423395574784    1.75094851264704    4.31802052403569
C         6.64182556491772   -0.96995001296897    3.24847087463534
H         5.95756343769366   -1.82043440971135    3.18419250762455
H         7.65752787719712   -1.34566251338464    3.14126523181558
H         6.43073887485924   -0.30532113914115    2.41215804293396
C         8.05944632689471   -1.78253317766656    5.93655946918083
H         8.52861744065635   -1.78807654615010    6.91810562842469
H         8.84351557828621   -1.70889416927226    5.18203812772593
H         7.54657585634304   -2.73767914949982    5.79958349588776
C         6.48476638621948   -0.35582482639685    8.33198455463383
H         5.82154352044299   -1.18551207801399    8.58709869208782
H         6.20699662198172    0.49984038959282    8.94444179832140
H         7.50298141086459   -0.64505192064773    8.58707690844671

