59
CSD_code = MONNIN | q = 0 | S = 0 | Stoichiometry = C26H24N6NiO2 | MND = 6
Ni        0.13248171457069    2.34659938420902   15.08490594635828
O         2.60646692278348    0.71477109913634   12.44434378911911
O        -0.36359431148406    0.93962721269873   16.25229583100570
N         0.79401114103930    3.53262359493924   13.68753863994135
N         2.23603578005374    3.67171677403423   12.03401721740665
N         1.08328646307704    1.03911013470553   14.17041458679624
N        -0.85518862361341    3.58873085664261   16.07785967472236
N        -1.79398614713503    1.65865018726078   13.68875074855777
N         2.25366909304879    2.74250107096352   16.29579966859842
C         0.82004708719138    4.81581275433737   13.25329360728584
H         0.20948587709876    5.58075945381419   13.69211849656244
C         1.71311418540889    4.91856422925628   12.22459056732454
H         2.00795082158811    5.75585003922654   11.62566981687153
C         3.22661755776722    3.29080867772943   11.06553604732625
H         3.39568028106448    2.21764580033209   11.16884249536221
H         4.15874698591371    3.82959155399868   11.24519231674802
H         2.87600870007749    3.51478146192778   10.05672072388439
C         1.65907091108457    2.85799654676454   12.93663440512483
C         1.85181193470426    1.39441507226921   13.14916840154287
C         0.91104083388277   -0.24883947047050   14.68071641290553
C         1.42295600668159   -1.43215270625969   14.17892129573152
H         2.05566039255825   -1.41877427652457   13.30574745232618
C         1.09719128799050   -2.62124979062469   14.81579055332137
H         1.48346842201024   -3.55448186459833   14.43190765181955
C         0.27953935796136   -2.61846555935811   15.93339472896836
H         0.03188653118989   -3.55371770767907   16.41716490660795
C        -0.23121910223452   -1.43743043455637   16.44695588136474
H        -0.86862444953229   -1.43679517477977   17.31920495025771
C         0.07834986973706   -0.22906138602990   15.82395241271853
C        -1.90802694536172    4.21772082443628   15.55559853817150
H        -2.11279977128929    4.02514884623734   14.50978428583518
C        -2.71685371958019    5.06330681932153   16.29540305546086
H        -3.56011424540064    5.54824678395768   15.82832592596980
C        -2.42855758680797    5.26811171703202   17.63560881552031
H        -3.04184721159561    5.91853759287583   18.24139618583255
C        -1.33439027581638    4.61238383360137   18.17614441245992
H        -1.07088965132940    4.73717003245559   19.21477372354839
C        -0.57626965435303    3.78353024857133   17.36592386929826
H         0.28357108174683    3.25315441726113   17.75265993222085
C        -1.38433387166715    1.13328213654864   12.53586251050604
H        -0.79572071478184    1.78425321114324   11.90025917557208
C        -1.66650849849266   -0.16278919226592   12.13970918679367
H        -1.28393320881625   -0.54169711838827   11.20493307647533
C        -2.42750733551985   -0.95965282213312   12.97903747834575
H        -2.64518642856926   -1.98525709476416   12.71994368291124
C        -2.90921813483230   -0.40664698507704   14.15399197420349
H        -3.52175157827361   -0.98289509156057   14.82949037841229
C        -2.57167618501969    0.90082497084322   14.46106047534208
H        -2.92761884738868    1.36215699753844   15.37347070137304
C         2.74484508481600    1.54498366286998   16.61206834086420
H         2.08486614270698    0.89535969606286   17.17165780015377
C         4.01281023438782    1.12127446447424   16.24886749228438
H         4.34632806020939    0.12825282528954   16.50521136302902
C         4.82523884304321    1.98890962018975   15.53823105188778
H         5.81067783813327    1.68657224329424   15.21550092362902
C         4.34852861830046    3.26094423300159   15.26281359029437
H         4.95793473422182    3.98301735274753   14.73984877646164
C         3.06556320430625    3.58915559668764   15.66598337081192
H         2.66387449855635    4.57785264436661   15.47609067976603

