30
CSD_code = MONQEM | q = 0 | S = 0 | Stoichiometry = C11H12N4NiO2 | MND = 4
Ni        0.93312985844245    2.52469166367412    1.75983118140995
O         4.14130308850385    4.12890634008657    3.43424941942644
O         0.36353427210238    1.21593369829224    2.89447235153125
N         1.75962443341616    3.95819041435704    0.77110519207416
N         3.42161478670228    5.40013792931462    0.78111428432399
N         2.27310304026243    2.81767229194546    2.99135928528274
N        -0.57590811853412    2.08294443434176    0.51584789851653
H        -1.07958793698511    1.34385679794898    1.00792381138692
H        -0.26109572560309    1.71810462214781   -0.38044856807633
H        -1.21427915186882    2.85763166338684    0.34998615602032
C         1.68487983552469    4.70498263502145   -0.36070364135926
H         0.91789168912324    4.56430637580896   -1.09697475653341
C         2.71304465465731    5.60488554043592   -0.36564279422639
H         2.98665800094232    6.35514360961802   -1.07861239723623
C         4.59464896676562    6.11273032669130    1.20707536657823
H         4.37122017510324    7.17489604456627    1.31676518004727
H         5.39522629704348    5.99102500722608    0.47592349502285
H         4.90808955907559    5.70132713990430    2.16739823699373
C         2.82299070300004    4.40137568987701    1.44607700868472
C         3.17855428276830    3.77203447947895    2.75983068571786
C         2.21518972193238    1.96786449623268    4.10934670603070
C         3.06268962593936    1.92822012232936    5.20180698180742
H         3.89610396930902    2.60819062831761    5.27109945950627
C         2.80551313409824    0.99259110864061    6.19449336205887
H         3.45392231505945    0.94300920711824    7.05676819795646
C         1.73060251070195    0.12607605779425    6.09015069301618
H         1.54796526371794   -0.59507453942770    6.87432328876907
C         0.87751768255979    0.16169825132003    4.99650687386009
H         0.04011481177968   -0.51479396215757    4.91719837593223
C         1.11833825446032    1.09094192570859    3.99272866547710

