32
CSD_code = MONTIU | q = 0 | S = 0 | Stoichiometry = C15H10Cl2FeN4 | MND = 5
Fe       -0.04242911125054   16.48599167352677    5.50513947426317
Cl       -0.24526762642619   16.21779116811972    3.44607004061548
Cl        1.00195429245423   15.84150630167508    7.19280438283670
N        -1.14437093086080   17.79521989427013    6.00083566634401
N        -1.60311624009641   15.33727497751669    5.90861619098963
C        -2.40484542456559   17.47093662517975    6.38619337586208
C        -0.80084888566498   19.10304224952636    6.01579514958157
C        -3.36850651004203   18.40334439701825    6.79716462617435
C        -3.91695474611891   15.58532838788344    6.69721190209277
C        -2.65394908207894   16.09122497048310    6.33112869595996
C        -2.97750883476850   19.75591616940774    6.80157461693924
H        -3.67217510429890   20.52128342458500    7.10710485231010
C        -1.69173309482049   20.09571796269533    6.40914284590452
H        -1.37739515045032   21.12716103691063    6.40673075755987
C        -1.79963814061285   14.03136678145313    5.84197869554037
H        -0.96185226566067   13.43599113688002    5.50589252833254
C         2.36663612144633   18.43137117400959    4.89491533039751
H         3.06871020922704   17.68259756522776    4.58784492312902
C        -4.63836795471624   17.87071920200829    7.16389872459549
H        -5.40574111938487   18.55913246354317    7.48616040676395
C         1.32697791274884   20.30711591351974    5.42453874018273
H         1.01039555104878   21.30917513307227    5.62820052947253
C        -3.01283306265630   13.43207104961187    6.18159214019549
H        -3.10438999351655   12.36022904706628    6.10307189009763
C         2.53118335058564   19.81817992662861    4.97502441326943
H         3.41061652654596   20.37882331963711    4.73583464305740
C        -4.08102841418325   14.19625729781876    6.61125725329332
H        -5.02250342348551   13.73873346002005    6.87558445289130
C        -4.89593563071623   16.53363285362895    7.11546356527108
H        -5.86914111894142   16.16059991236189    7.39957815742125
N         0.50943473046135   19.24422370321633    5.59411580205741
N         1.14492317079822   18.09564082149791    5.26993522659846

