35
CSD_code = MONTEQ | q = 0 | S = 0 | Stoichiometry = C16H12Cl2FeN4 | MND = 5
Fe        0.59956895315386    1.17979575731403    8.11403659046499
Cl        1.38362500383743    2.17819478188965    6.45174606874660
Cl       -0.21895274524388    1.42786587424062   10.02188236576825
N         2.38739933563732    0.75396164130127    8.82868896491362
N         0.56930849589116   -0.56058036073070    7.72021993721773
N        -1.21085924903960    1.00210572650696    7.25285191359854
N        -1.46776775907062   -0.26402485047331    6.84967478554940
C         3.32248768319617    1.48834968902944    9.40862947523549
H         3.09749313912807    2.53843961652430    9.53606977280569
C         4.53875146317160    0.95988847593323    9.84044494901317
H         5.25607760336101    1.61710866876350   10.30622677437461
C         4.82283725709446   -0.38268693556403    9.67590749020934
H         5.76229799404286   -0.79824682374778   10.00779611145179
C         3.86078311397399   -1.19854381994691    9.06563294732175
C         2.66590976137755   -0.56831493184483    8.66577320222583
C         3.97035156370809   -2.59702433443189    8.81028574965567
H         4.88118535750546   -3.09373961658143    9.11156643265770
C         2.97498669077237   -3.30609177899639    8.20821938037318
H         3.09409048623142   -4.36492230985088    8.03134171154863
C         1.75913661041797   -2.68833557387857    7.79478924102009
C         1.65051975439467   -1.31237425027350    8.04594578369461
C         0.66155743556756   -3.30380205222468    7.16460186506314
H         0.68234074121679   -4.35894367211284    6.94523168514337
C        -0.44684126346622   -2.54184824245743    6.82653875547050
H        -1.29562276642567   -2.99746456852257    6.34224266173703
C        -0.46682494799237   -1.18107404293185    7.11206396269048
C        -2.68127432041395   -0.33285597619318    6.25822469839221
H        -3.07569672101914   -1.24891067044759    5.86901167573726
C        -3.21316162796587    0.93407499186681    6.28574603645971
H        -4.16376867127038    1.24443423217145    5.90386043246922
C        -2.25494326014070    1.74417799201988    6.92004929942907
C        -2.28216290291537    3.19764375044844    7.21065381286753
H        -1.67715256744730    3.39696247567677    8.09501624103292
H        -3.30019876919269    3.53993350774033    7.37525222664236
H        -1.85478087207856    3.75154762976109    6.37477699903631

