90
CSD_code = MONVIV | q = 0 | S = 0 | Stoichiometry = C30H50N6Si3Ti | MND = 5
Ti        8.48118799675441    2.28232427163961   10.17528489941180
N         8.67162551564359    3.89058132764177   10.68914452085826
N         9.01309666054828    5.15692002013300   10.96839026674609
N         9.72926902651678    0.86984737863687   10.79590505482555
N         6.91357562064641    2.19798493339598    8.95796216440380
N         7.11179833692189    1.52937383424755   11.72371913150029
N         9.74620668357706    2.34521431000806    8.51298936800094
Si       11.34157829238947    0.41413465573064   11.09396700891544
Si        6.52047156171787    2.98083970038380    7.50032270892078
Si        7.13946840630741    2.45781874538509   13.24752142917125
C        10.35451513953413    5.47531913820931   11.15127520074900
C        11.25551378226617    4.44812663432267   11.47602465305755
C        12.59706206205927    4.72075992904320   11.64161165451539
C        13.08433448416693    6.00770087444850   11.46492580429508
C        12.20841938921644    7.01684824718309   11.09100835109960
C        10.86241171903621    6.76325709195628   10.92737894914144
C         8.00171972955291    6.11785810784614   11.03126917469476
C         6.83208611409296    5.92065585588189   10.28419045160163
C         5.80100648113767    6.83471157844900   10.35018522701125
C         5.89410681465653    7.94618217866683   11.17489162413867
C         7.02803491684810    8.11957871527383   11.95414488318757
C         8.07101201540514    7.21753510953070   11.89450900481580
C         8.69791964130758   -0.13686653801909   10.78071210158154
C         7.64858962888551    0.17734116269587   11.85991147214933
C         5.82748039449431    1.55750313188584   11.03446288957635
C         5.95545454520140    1.28849582125891    9.52968160864141
C         6.26901067076035    1.38992243547829   14.59372400647409
C         8.96563135621327    2.71978544034201   13.70685376128750
C         6.11879414935878    4.05802754846395   13.08897753046632
C        11.96007488033824    0.72412233387349   12.89538317210386
C        12.59895228813396    1.28878747748747    9.94228531778330
C        11.63272889761414   -1.46491239298141   10.80927549167385
C         6.48073307979625    1.80290336635737    5.96786506462737
C         7.79733412062137    4.35598361433445    7.12990464698240
C         4.75966866695225    3.76424507018484    7.52129995516468
C         9.62836301955936    1.35530110110044    7.62887100830586
C        10.41976234126187    1.24640798036728    6.50010104717565
C        11.38335888245524    2.21743211514924    6.25855982887036
C        11.51173684838214    3.24827518160005    7.17800008249784
C        10.67941689403063    3.27130496438398    8.28443876796798
H        10.86302708006297    3.44156446063839   11.57521791407447
H        13.27229037266963    3.92085002991708   11.90972518871976
H        14.13414643242981    6.21924510145573   11.59901788296720
H        12.58322592719614    8.01503914954247   10.91458991269124
H        10.20496497021354    7.55395731459077   10.60000287684061
H         6.76722030673215    5.03569966915213    9.66330809403913
H         4.91404723871820    6.68156749628119    9.75222685335474
H         5.08696298345631    8.66139942399305   11.22192927000012
H         7.09518497638550    8.96419845473850   12.62501924300576
H         8.93183571730858    7.34819330905297   12.53275908273391
H         9.08214898981475   -1.15061594811311   10.97604654062614
H         8.20340786764603   -0.18106425373720    9.79138133952666
H         8.16039313657885    0.08101517791393   12.82400227498210
H         6.83501760741551   -0.56516025537045   11.83797385538023
H         5.12649482405195    0.83368605481217   11.48741204868895
H         5.40659661015183    2.56153471798670   11.13722067150131
H         6.22995609168877    0.22615148791665    9.36200937970231
H         4.95113369274389    1.40563090756278    9.09110445878851
H         6.13999326138228    1.96162643865902   15.50644750223010
H         6.83554610927854    0.49998415881315   14.85100616077447
H         5.28121433868399    1.06735426718515   14.27547666216485
H         9.23820731459019    3.76773993926236   13.63269900214499
H         9.18471781930489    2.39642797215120   14.72002627694619
H         9.59795824710623    2.16503435024865   13.01509923297647
H         6.43011237571451    4.77096899490822   13.84505289647389
H         6.26505960503066    4.52842661966315   12.12122315636086
H         5.05649756029185    3.88320424118571   13.23140697433871
H        12.95486566822470    0.30875792268009   13.02704759615125
H        12.02019599045679    1.78259884112567   13.12994148062258
H        11.31630680176120    0.25932912266097   13.63802975428979
H        13.60996135046619    1.04480932735824   10.25178294705829
H        12.49666527242769    2.36737564049332    9.97903512652739
H        12.49255072451472    0.97838614227317    8.90644784985023
H        12.69188397906695   -1.69947986585713   10.82470181298557
H        11.16022586653366   -2.06574288174816   11.58121852177843
H        11.24158615335564   -1.79171078544774    9.84932283185831
H         6.03459554850558    2.29283939168188    5.10804839886929
H         7.47536610277499    1.47667383919375    5.67479568514506
H         5.89043770090449    0.91337838621510    6.17360645856113
H         7.30474654155744    5.25159610107855    6.76809663000613
H         8.36166463658296    4.61634130027294    8.02159449672723
H         8.50029576176609    4.04272602758258    6.36392391953095
H         4.61586218541398    4.43822294365204    6.68299594157632
H         4.57836286170225    4.32730170107548    8.43219251148605
H         3.99145256385039    2.99922112699308    7.45198654493049
H         8.85445612776887    0.61983812185180    7.82034956720213
H        10.28369024993984    0.42178056695677    5.81675539301775
H        12.01071473938939    2.17021144482998    5.38138381619168
H        12.24570482673807    4.02649932901273    7.03896871445205
H        10.75533583537450    4.06665452371962    9.01705996480110

