61
CSD_code = MONVIW | q = 0 | S = 0 | Stoichiometry = C30H22Cl2N2O4Pt | MND = 4
Pt        1.23107512141547    4.91993862064270    5.48566900883646
C         1.51439735792630    8.31625282539103    3.47846130911352
C         0.42699968214942    7.87570844277796    4.23006174944017
H         0.36470428610190    6.83812863715509    4.55539302273614
C        -0.61236636531534    8.73845161029096    4.52276887789670
H        -1.44786300297641    8.38161646300590    5.10469426412847
C        -0.57925186298884   10.04796301291504    4.07231479304118
H        -1.38801744266984   10.72297824326244    4.30883335286440
C         0.48939292801468   10.48796331375618    3.30726548018052
H         0.51306311489731   11.50485111392076    2.94437416500034
C         1.52749927281738    9.62842466781447    3.00402173951558
H         2.36103966709829    9.96849362706427    2.40804979160450
C         2.63485188785189    7.42480551550660    3.14058408283452
C         3.21318595117096    6.52247818467453    3.97939083867469
C         4.36956300476892    5.71812015979815    3.56977286323073
C         4.74368168156323    5.87912604242064    2.17009355432497
C         4.07695291447787    6.83220134229393    1.39193385645237
C         5.75695421207247    5.10990199687050    1.59051247654804
H         6.25095576489358    4.37946289329527    2.21253711260467
C         6.09582515493352    5.28751882807295    0.27004107803321
H         6.87517742922989    4.68958030550994   -0.17650842455093
C         5.42989986414147    6.24211769949328   -0.49679928780289
H         5.69706657621335    6.37816269007084   -1.53383209139802
C         4.43008579973328    7.01254220464811    0.05311034578345
H         3.90109233291620    7.75148945978911   -0.52769504040064
Cl        1.56410073667977    3.98041458204872    3.36574724864860
N         2.80820835863541    6.24884779109711    5.31298240237888
H         2.54591202088024    7.07322492397197    5.86300919590879
H         3.61007042679473    5.75799279627328    5.74972961198649
O         3.09206143251808    7.61560095439402    1.88555037330817
O         4.95479493953923    5.01455511281796    4.38396248209657
C         0.94250568357421    1.52387045203262    7.49033478469048
C         2.03050609036685    1.96299849075947    6.73875006620542
H         2.09411986086840    3.00039040130634    6.41321909241956
C         3.06888847514031    1.09893730353444    6.44641431272462
H         3.90489228322081    1.45460266816832    5.86450318413822
C         3.03422156841045   -0.21040654834812    6.89724574150707
H         3.84224553115772   -0.88641419440203    6.66102747047965
C         1.96499312071504   -0.64896476400070    7.66230706487285
H         1.94009047637331   -1.66572606812270    8.02546548420645
C         0.92784676883905    0.21185333325563    7.96516036240298
H         0.09382492576710   -0.12707900249858    8.56110606265791
C        -0.17705816200037    2.41656919477732    7.82769841106851
C        -0.75377792851479    3.31967782093100    6.98862622952089
C        -1.90896399920862    4.12593923451709    7.39789892093317
C        -2.28411866089275    3.96517913104939    8.79735539254799
C        -1.61924537075736    3.01094582345001    9.57568889456329
C        -3.29661296846090    4.73572462462330    9.37656282556984
H        -3.78917289090429    5.46706875915067    8.75445807582100
C        -3.63654066332197    4.55824009490692   10.69678833443067
H        -4.41529749086498    5.15718121320248   11.14303540700894
C        -2.97249574837743    3.60244776052956   11.46377017519835
H        -3.24055275337865    3.46644159511385   12.50058032164118
C        -1.97345340987266    2.83074339540518   10.91425504469380
H        -1.44590713946366    2.09083824987022   11.49516288729265
Cl        0.89651756383273    5.86184832119454    7.60423134159592
N        -0.34774204714342    3.59266354478871    5.65522069549961
H        -0.08597549804432    2.76796064814291    5.10544306929069
H        -1.14868025730241    4.08455083056978    5.21793221721401
O        -0.63514727004974    2.22628556070741    9.08249909145263
O        -2.49272333518795    4.83051806434069    6.58352880532450

