104
CSD_code = MONWUI | q = 0 | S = 0 | Stoichiometry = C49H51MoN3 | MND = 8
Mo        4.90351967741406    2.11305230824801   13.82695580575426
C         3.16816747306829    2.60154898652014   13.04122980459688
C         2.68654774395643    3.13967762513729   11.72727900426949
C         3.35987191704586    4.46754262346605   11.37261619776563
H         3.13541415311316    5.21374888684428   12.13040725100148
H         3.00013188957057    4.82527048574191   10.40938608830413
H         4.43471022546384    4.33087365480901   11.31838565103128
C         1.16477669160348    3.33677610193518   11.73841935783290
H         0.88158935600211    4.04862105056509   12.50949917510485
H         0.65900917928459    2.39232944075180   11.93082926785211
H         0.82379095803733    3.71720591394701   10.77726840415455
C         3.03381825431258    2.10600016151603   10.64109401434573
H         4.11221636465271    2.01051057712814   10.55795823675075
H         2.63568127580952    2.43068630175231    9.68180738819001
H         2.60613000949873    1.13475168010102   10.88191555982692
N         5.88044079453652    2.65972848304084   12.49994751352361
C         6.68477915126660    2.98848991100116   11.47078787812092
C         7.05889494567488    2.00672772474275   10.51879175364411
C         6.58535033944054    0.58040722806322   10.67224158340971
H         5.76099064536047    0.58045165109841   11.40284100381261
C         6.05768170850873   -0.00582712422706    9.36171457210870
H         5.32030494522795    0.65672686263414    8.91555421975923
H         5.58468526259109   -0.96810448622550    9.54660810434384
H         6.86260104064860   -0.15949915220514    8.64753759983251
C         7.72618492752346   -0.28264568565714   11.22224649243597
H         8.06009551121114    0.09695440813503   12.18645374961015
H         8.57319037012832   -0.26866428184556   10.53949920567772
H         7.40350979519584   -1.31606622554348   11.34304177658851
C         7.90234202259012    2.35244310324521    9.47834791274003
H         8.19795671945744    1.60144248042269    8.76154927880585
C         8.37912401452658    3.64269253723666    9.34080120186106
H         9.03358987822738    3.89511868292250    8.51995964716110
C         8.02295057908788    4.60288942324176   10.26931520637082
H         8.41100132531783    5.60466075285362   10.16596854770594
C         7.19196892064021    4.30608943072788   11.33529121578024
C         6.87709831427114    5.36846697552864   12.36249479949492
H         6.11982646375844    4.97189021348283   13.04960293021928
C         8.13939786703990    5.70078667669704   13.16497158711206
H         8.55408389992795    4.80574196953656   13.62205667874309
H         7.89912245427654    6.40772807532925   13.95510610078830
H         8.89792092007111    6.14095517685679   12.52079553056884
C         6.31897603793623    6.64412859915910   11.72719303658682
H         5.46179795150570    6.42238776360714   11.09736411964117
H         7.07177153491794    7.14487973661971   11.12307308858267
H         6.00369368513695    7.32908425012755   12.51078856204029
N         5.28162812277960    3.71647888409686   15.08597629365850
C         4.52710343943637    4.83571299060217   15.31965220156837
C         3.10811530379172    4.99706786255578   15.02003286102926
C         2.16647103624843    4.06127811724473   15.44275249299294
H         2.50356713421981    3.16504626164766   15.94192599815711
C         0.81458661553222    4.30081555099498   15.27925505850208
H         0.09395426633074    3.57096465184940   15.62050876822981
C         0.37848282132402    5.47694755918049   14.69112858858560
H        -0.67841598282540    5.66349638916251   14.56674994885506
C         1.30536961837049    6.41826951545314   14.27330402515373
H         0.97062155164278    7.33975620345000   13.81870826426535
C         2.65731088794498    6.18399234341188   14.44055913126057
H         3.37945070978610    6.92313136085121   14.12478652097454
C         5.27005499322927    5.77978347642069   16.00382682179432
H         4.92474527365562    6.74384303403878   16.32449901979361
C         6.52265007492480    5.21069365965205   16.23905986277339
H         7.35289672825015    5.67088109631769   16.74031201490053
C         6.51651935548945    3.95345197141951   15.65797006992059
C         7.67572387364608    3.06397747409470   15.72164916376369
C         8.39975943387183    3.03605354049381   16.92260339758115
H         8.05846633840156    3.63725312549545   17.75260783870083
C         9.52729680119678    2.25272019616200   17.06658980088698
H        10.05742873550353    2.24402657048659   18.00828959019311
C         9.97937389997741    1.47718126414266   16.01053951282552
H        10.85881676949914    0.86044986502052   16.12157218340569
C         9.29992224537924    1.51956285288902   14.80593239455418
H         9.66361942497111    0.94761364148192   13.96327379004934
C         8.16656374841829    2.30192061688202   14.65925636265992
H         7.69220158000282    2.35498483258438   13.69140691089645
N         3.55255892121572    0.72039370621446   15.16869406957661
C         4.00112692744556    0.02285201310173   14.08388878953546
C         3.06398053011648   -0.61776046714265   13.15847064077015
C         1.68978655953570   -0.52293876412982   13.39021554337014
H         1.34579305290502    0.02439635284975   14.25503142321775
C         0.78939257224425   -1.11954314158301   12.53024699423785
H        -0.27069205451547   -1.03217130431873   12.71853531003103
C         1.24013697818017   -1.83215643002558   11.43056327077219
H         0.53543384572779   -2.29577980494602   10.75678528565398
C         2.60124002102638   -1.95290387260212   11.20444845328659
H         2.95861288618487   -2.51513406892204   10.35402585600479
C         3.50745727920754   -1.35612681163772   12.06007271023193
H         4.56528667933544   -1.45976751402301   11.86763420154859
C         5.41059645173930   -0.18060386203838   14.20528796329958
H         6.02740641410683   -0.84877313425935   13.61701447145945
C         5.78802139583415    0.40233861443591   15.43219770087236
H         6.74856356665693    0.29976750796631   15.91549854390824
C         4.60604921091216    0.95470698141188   15.97940485054417
C         4.39788625959968    1.52046071293283   17.31434415660565
C         3.09873996692771    1.63321637522822   17.81454270323933
H         2.27493234298068    1.27860803016246   17.21214363396568
C         2.87327556963653    2.17005844411654   19.06639177811199
H         1.86282275813276    2.25923999299382   19.43754874782114
C         3.93855111935160    2.59062616021195   19.84573095579822
H         3.76155105136969    3.01749455148519   20.82170380371748
C         5.23226276769870    2.44677259244256   19.37359254406021
H         6.06799368993017    2.75397315355878   19.98519466282672
C         5.46432630317895    1.90960498184655   18.12186324038992
H         6.47816824476594    1.79723387010772   17.76990412331538
H         2.30194669275370    2.24509926741660   13.60109858001463

