107
CSD_code = MONWOC | q = 0 | S = 0 | Stoichiometry = C42H61MoN3 | MND = 8
Mo        0.91637826728407   -2.20327626523668    4.04532169184456
C         0.08028609543461   -0.43338997332095    3.86452006895225
H         0.30681633632021   -0.00363917530833    2.88385971230081
C        -0.58539158673072    0.63314310896111    4.69691492008226
C        -2.07467946256088    0.79249420174378    4.31765323393183
H        -2.61587931673746   -0.12090389003856    4.54470850139697
H        -2.19617216476990    1.01855269712496    3.26239492371124
H        -2.50888428772550    1.60877885570152    4.89289528481694
C        -0.53045785430828    0.27832697651444    6.18491556570870
H        -1.03595111712830   -0.66633077902136    6.34964599314878
H        -1.02320702086818    1.04351472378609    6.78165113778620
H         0.49829357195489    0.16740160456891    6.52182179477772
C         0.09353261009316    1.97417343704394    4.40568207850428
C         0.72516675226479    2.72915147463874    5.38628716977309
H         0.75344618742604    2.39146407948638    6.40919954411303
C         1.33487104379500    3.93556897533300    5.08133841504677
H         1.81997075654360    4.49807369711479    5.86657418580991
C         1.32566274098349    4.42104583777641    3.78774780128919
H         1.80343404029925    5.36011615726056    3.55041439962040
C         0.68953987610239    3.68827921911985    2.80047966718064
H         0.66490596864900    4.05497859813090    1.78432221984773
C         0.08305793482606    2.48563598739270    3.10862132279537
H        -0.40482988665873    1.93921322994099    2.31410305989182
N         0.29302429032998   -2.67272152320924    5.59604734128633
C        -0.19782089190823   -3.20693531923749    6.72569986259942
C         0.68133179259509   -3.67450962074173    7.73515329933665
C         0.16349625655463   -4.24956402651908    8.88024259754565
H         0.82886904074592   -4.59321776684485    9.65655114304375
C        -1.20119768731953   -4.40169370473296    9.04742792226394
H        -1.59000383481461   -4.86081149474760    9.94398293994022
C        -2.06284054341529   -3.96754932955628    8.05792474852234
H        -3.12551172648494   -4.10311633226539    8.19134745866824
C        -1.59721752632030   -3.36599441476758    6.90105357126415
C         2.17047245899342   -3.51282162741337    7.53588647781459
H         2.36370589847029   -3.58571688017571    6.45633969794223
C         2.59636699559002   -2.11668170201884    8.00254772353417
H         2.07086289652535   -1.35651396356677    7.42564197159120
H         3.66868770835848   -1.97736391523636    7.87548100617996
H         2.35368364212937   -1.98335079754493    9.05471879957945
C         3.00332317765053   -4.58765913606712    8.23203752834852
H         2.61843462841973   -5.57907667256954    8.00406877709040
H         3.00178949899074   -4.45072113163003    9.31058458746748
H         4.03606124483324   -4.53205706528152    7.89198733324828
C        -2.58305050733069   -2.90164171318491    5.85143346107354
H        -2.02779831758296   -2.34880440001041    5.08201601359366
C        -3.26702858033631   -4.08798016101433    5.16284284665707
H        -2.57260069748633   -4.59873819151022    4.50237350931522
H        -4.10276867464648   -3.73356291418808    4.56325034097083
H        -3.64806270873561   -4.79777154299011    5.89401156295626
C        -3.64519321938430   -1.98367101060231    6.46786703259783
H        -3.18675179699586   -1.18679071295438    7.04874437355976
H        -4.30817937095034   -2.54383679198813    7.12254135083117
H        -4.25189977846489   -1.53626413346384    5.68315801142690
N        -0.37369284729114   -3.44609248315467    3.00138428241481
C        -1.31148429768832   -3.18279259655907    2.02888211148545
C        -1.69641593313918   -4.35835987558387    1.43048962369105
H        -2.40874116115813   -4.47195280027380    0.63616714043882
C        -0.98921190297598   -5.39565062131557    2.06507025017692
H        -1.07256889315763   -6.44382529921397    1.84721362809341
C        -0.19498770934946   -4.81551550729759    3.02431402522120
C        -1.90876876405640   -1.82409075814012    1.80693426533723
H        -1.68397551591262   -1.23256521404632    2.70020578159388
C        -3.43023457455374   -1.92421098073449    1.66752379586634
H        -3.84965949593208   -2.48409807616520    2.49874364821487
H        -3.70059044159783   -2.42774215203054    0.74291937896281
H        -3.87360263862551   -0.93008567783301    1.65689649399978
C        -1.32489421861685   -1.09561613523227    0.59214185585484
H        -0.25905093292331   -0.92025761345065    0.72428480621555
H        -1.82074605085187   -0.13474546200735    0.46027953455216
H        -1.47428609640306   -1.68062389075405   -0.31324608305149
C         0.62789797585891   -5.55854182309924    4.04623295099597
H         1.24734574217692   -4.84488764202228    4.60655332127225
C         1.53644699137738   -6.61496746360283    3.40802705377849
H         2.25201653793889   -6.17613558936458    2.71724613607361
H         0.94037601993954   -7.34115635624620    2.86149084892087
H         2.09141297499443   -7.14422729980254    4.18148111027542
C        -0.28667948185193   -6.26012221789689    5.05989994524175
H        -0.86552143143499   -5.53440127336054    5.62204158948275
H         0.30799857665898   -6.83878258932618    5.76504059733996
H        -0.96872045148404   -6.93398092448330    4.54658318634054
N         2.29884875619163   -1.58005093939363    2.27921564020965
C         2.47178674746540   -2.92600776923779    2.31470366341394
C         3.11571044905360   -3.30816987596395    3.50476046096079
H         3.49601518385333   -4.28717284462815    3.76010415878151
C         3.30246705512618   -2.11999524960893    4.24872437240809
H         3.91146243643083   -2.01903267634941    5.13852687075539
C         2.80715185511401   -1.06549313278748    3.43631118195787
C         2.35833656108011   -3.77327710055965    1.06946335038508
H         1.87539101659699   -4.72661580860864    1.30971646648449
C         1.54783339577888   -3.09629599707067   -0.02998926939700
H         0.50153646050868   -3.04755831514973    0.25636317330653
H         1.62484706753336   -3.67051131191720   -0.95094680213632
H         1.92087038782056   -2.09033752853158   -0.20953199249405
C         3.78552620665629   -4.05308369380457    0.57565979907377
H         3.75617735293068   -4.67126066170677   -0.31884014917037
H         4.37182603933862   -4.57084921923985    1.33241450266401
H         4.28543534942860   -3.11661770356088    0.33476029363212
C         3.18388377666737    0.39260119063754    3.52616673964086
H         2.37032412696457    1.00484878443317    3.12333517694217
C         4.42111070287984    0.61356061189807    2.64602630342545
H         4.20700766541316    0.31858360307875    1.62149580426771
H         5.25868898276437    0.01993001320664    3.00932951271492
H         4.70554199127636    1.66302113345182    2.65774530230528
C         3.46493773020982    0.82456799077519    4.96265430159376
H         2.63080075985427    0.55628061592469    5.60932294473838
H         3.59927744647305    1.90248032545281    5.00483904994239
H         4.37064936420229    0.35254909955596    5.33923188225307

