74
CSD_code = MONWUH | q = 0 | S = 0 | Stoichiometry = C35H33ClN2OPRh | MND = 4
Rh        1.24988943986050    1.46333495139603   -0.12358015398574
Cl        1.04020608522343   -0.63650271956369   -0.95298751151299
P         0.86729534860685    3.45531317754463    0.81786313118819
N        -0.41424737485757    1.94899063170013   -1.33926261433635
H        -1.13277748939713    1.27771902941868   -1.04861984408887
N        -2.43953471670609    4.62512717741208    2.43914521181305
O         3.58477472559640    0.74862248710793    1.57109160117113
C        -0.95801967775690    3.32112513903931   -1.23629076931144
H        -0.31936497801894    3.95061718233048   -1.86665930133022
C        -0.88555142855522    3.82917503983345    0.21311813409702
H        -1.50696482470825    3.19045342320446    0.84968647894332
C         2.68572481885935    1.01466369963737    0.90861198014085
C        -0.05370433990033    1.63826199010436   -2.69497544701254
C         1.14754705748253    2.12803471483895   -3.19676003283718
H         1.79999773192035    2.70622565968488   -2.54476385493581
C         1.51783134425772    1.84927541811794   -4.49823817771387
H         2.45950767337532    2.21563191692577   -4.87915811402862
C         0.68921538691813    1.08830467890038   -5.30747293345073
H         0.98362525166327    0.86332232286699   -6.32143179750169
C        -0.50738830633726    0.60386646639484   -4.80965962743931
H        -1.14962992114298    0.00142411603399   -5.43443166322655
C        -0.88560891332839    0.88278060794110   -3.50772227773241
H        -1.81373051644383    0.49038001930260   -3.11646399492304
C        -2.37736766857254    3.38521631974185   -1.74932408410234
C        -2.72959103802045    4.27846169040606   -2.75141909367474
H        -1.97926105706174    4.92975618191351   -3.17506783772974
C        -4.03170940784281    4.33894568253108   -3.21577635346351
H        -4.29009063184429    5.03870766189707   -3.99629337829630
C        -4.99837588707087    3.50228787898975   -2.68620071934340
H        -6.01396077881196    3.54685838192843   -3.04940637812370
C        -4.65640317259431    2.60333194553170   -1.69037116345821
H        -5.40410167976027    1.94449800144984   -1.27404074713183
C        -3.35535097754072    2.54613555673584   -1.22475373552596
H        -3.10824554772113    1.83614049067130   -0.44610709012053
C        -1.30807958634331    5.25388495564141    0.38692455750215
C        -0.91766997789019    6.23749091552569   -0.51408554322865
H        -0.32810212074049    5.97263148225915   -1.37870359384521
C        -1.23720217335011    7.56834863480441   -0.31331755240112
H        -0.92200159514412    8.31082221525489   -1.03057334236695
C        -1.93688505247545    7.94118490636122    0.81851887071148
H        -2.17839678471064    8.97883816443273    0.99482586847081
C        -2.33543473841743    6.97751211615326    1.72696493443873
H        -2.88867845902832    7.27471806509821    2.60489152864905
C        -2.04497185018666    5.63329821816950    1.52111977258584
C        -2.42325945659669    5.00188132503383    3.83567465945716
H        -2.43605472732612    4.08802298560171    4.43077825224367
H        -3.28368549138457    5.61694572475733    4.13650679250800
H        -1.50287502838222    5.53971003484968    4.05355010370658
C        -3.68292479819748    3.96901181289173    2.07912909588863
H        -3.74173360760803    3.01103200791290    2.59853973079631
H        -3.72224401211218    3.80207403283365    1.00438731514941
H        -4.56132037911458    4.56913217977413    2.35991647201940
C         0.62775706139475    3.37705207017840    2.61850834145446
C         1.22632993206350    4.20733860050744    3.55616492336012
H         1.85798854450565    5.02403577076398    3.23960540179070
C         1.03367320871586    3.97395075661366    4.90813821125243
H         1.50118830697784    4.62389962320210    5.63373831159122
C         0.25968400821705    2.90877780938650    5.33278098921366
H         0.11606524325217    2.73200934822714    6.38853434938315
C        -0.30775143603215    2.05213420888835    4.40094962583892
H        -0.88427912311920    1.20001312111177    4.73042732830972
C        -0.11395542320564    2.27938727202241    3.05426893692093
H        -0.50772060889138    1.58362275188795    2.31761850131586
C         1.82418629259813    4.97497212796872    0.52096269977262
C         2.92001704970418    4.84355074127666   -0.32728577516272
H         3.15016704492778    3.86096404900669   -0.72832903882107
C         3.70730289525260    5.93798718563130   -0.63387933837676
H         4.55670558816659    5.82838585533454   -1.29186528753742
C         3.40388331268758    7.17532678110979   -0.08956583330143
H         4.01513974493484    8.03388038362102   -0.32564413403922
C         2.32106109153398    7.31153755164197    0.76455279727384
H         2.08944862346558    8.27569369809046    1.19336656576988
C         1.53017462603215    6.21944475445025    1.07322297049213
H         0.68841932603183    6.33570883974834    1.73900369023742

