95
CSD_code = MONWIV | q = 0 | S = 0 | Stoichiometry = C40H42BN7O3PRh | MND = 6
Rh        9.72429454325402    3.32950048642325   14.52545753374012
P        10.65097014937670    4.52656451420944   12.79031593478450
O         8.29963539810355    5.65557693735519   13.93868549992162
O         5.70134430405103    4.98006509715326   20.55444897198274
O         4.02528515533687    5.45644553592608   19.29706683141579
N         5.19810443481892    5.19109214050201   19.46884571325285
C         8.48229284574015    4.83021204267869   14.81836233057955
N        11.93389041881255    3.14262239355041   16.56513057397335
N        11.14831690252693    4.09159732867605   16.01965158715725
N        11.72954285709110    1.08128478003836   15.13712572326095
N        10.98000474548364    1.52110149028645   14.11561777586758
N         9.99587383170239    1.59312066833153   16.82923236473450
N         9.05867817251459    2.11206162670026   16.00947920581732
C        12.16882381172621    3.67801617103485   12.19542868352538
C        11.32608698004267    6.22456587369215   13.00531099146984
C        11.21122298510980    0.74128733920123   13.06673363663658
C        11.60529294213136    5.27812416543048   16.42025846881191
C         7.80094761205847    4.53888955471212    9.83938270825718
H         6.81493320731146    4.12442532484394    9.68848667249249
C        10.31921787486325    5.61477326303336   10.23915804333700
H        11.29891452889928    6.04606378686920   10.39568622884958
C        12.91735053399547    3.71530593556507   17.28447229269597
C        10.93020677030260    6.57949160086168   16.17274141047135
H        10.15906462437624    6.48906102495376   15.41580862055735
H        11.65149425813722    7.32967924333988   15.85557272294387
H        10.46771789629347    6.92660315644128   17.09826462527927
C         8.38609191606480    5.31100845188322    8.85133778050785
H         7.86130296381680    5.49925092421993    7.92623442399608
C         8.47525090744065    4.29833309764699   11.02450354796665
H         8.01579530627991    3.70676811623388   11.80275253206804
C         7.86475076456500    1.69330582058719   16.42246379210221
C        13.10605182408539    3.31386362492002   13.16098603878096
H        12.92205688899159    3.55246863060680   14.19910299135846
C        10.49837597129390    0.86813389219200   11.76849971154889
H        10.02637791506744    1.84496471704646   11.68836093542287
H         9.72407447619335    0.10336996560190   11.69945591990581
H        11.19103109520900    0.72950583338601   10.94115555236194
C        12.74051077394209    5.08332541173439   17.21316068603659
H        13.33973949342861    5.84192650179008   17.67389987869270
C         9.64734483240239    5.84903877357300    9.05473387134575
H        10.10702956966528    6.45620300792469    8.28821158429571
C        12.46789688611025    0.02547427784957   14.74399360955433
C         9.39737975218028    0.86159985404725   17.78845483346065
C        10.46543278176429    7.30824074839030   12.83626418047685
H         9.42730124437357    7.12965843030833   12.60312950764770
C         6.57432347760778    1.97489359972648   15.73859779596286
H         5.89065481163213    2.49238393664815   16.40937788706352
H         6.10953600396029    1.03419061370086   15.44520029473463
H         6.73408705370465    2.58019362995743   14.85035198766464
C        12.65838354732279    6.46981129152102   13.31785040502012
H        13.35204609069406    5.65287698864849   13.44680306802863
C         8.03605673105782    0.90492080853929   17.56262783779732
H         7.26768156307283    0.42891566610120   18.13668466931835
C        12.16415563349357   -0.22024136493569   13.41918088842158
H        12.56997783314963   -0.98777741814754   12.79190068184170
C        12.40707224366790    3.32934424605188   10.87280740554912
H        11.68591127818743    3.57392125059583   10.10675604717679
C        13.12063353935525    7.76816130959442   13.45263043950236
H        14.16101437990980    7.94130820939660   13.68871974614654
C        13.56221090487714    2.64890167343418   10.52459316398453
H        13.73319584907881    2.38355064714472    9.49103261246815
C        14.48904947450242    2.29911349357634   11.49017291288158
H        15.38444642234162    1.76149491916672   11.21505359692831
C        12.25968605841470    8.83834802294504   13.28402428694740
H        12.62346306375712    9.85000870783327   13.38915511594700
C        13.97817924842089    2.95547717833225   17.99460487653941
H        13.55537393435440    2.36590593007275   18.80669178847717
H        14.70530928180672    3.64942843117384   18.40804946652626
H        14.48484875523029    2.27429883252737   17.31330911363781
C        10.92920052932475    8.60229521541327   12.97741001159719
H        10.24989632796846    9.43138260899033   12.84395147873032
C        14.25666155663183    2.63307691943871   12.81428711893580
H        14.96950900925302    2.35430806721340   13.57725300819589
C        10.11599844044007    0.15507712021149   18.88082697287684
H        10.73696528945589   -0.64556654570618   18.48227456608683
H         9.39087854589196   -0.27418219061967   19.56697074845332
H        10.75810551326269    0.84146948214774   19.42928656064935
C         7.67942608365734    4.94568540933177   16.08179489729349
C         6.33878253601532    5.31879306883065   15.95093599660740
H         5.95741090124535    5.54291751218193   14.96613704633492
C         5.51851742223221    5.40082682795851   17.05564338581414
H         4.48090581324706    5.68598765030045   16.97050379840868
C         6.04501802452549    5.11680954711190   18.31183122869928
C         7.38402268921289    4.76984988432530   18.46426325329030
H         7.76424798098751    4.57055373272430   19.45471423991835
C         8.19347693603227    4.68301635460128   17.35185099512125
H         9.23349528538094    4.42350615899444   17.46991438475614
C        13.41975593596568   -0.69648332594044   15.62834440794395
H        14.14040906498944   -0.00796280330405   16.06588547309657
H        13.95348593895648   -1.44618167837697   15.05031673539635
H        12.89196987022709   -1.19227876073436   16.44188591022646
C         9.73884475946523    4.83022073172909   11.23550513912048
B        11.51653939182532    1.66539499809197   16.53664836569535
H        12.12055379934384    1.05534563950217   17.34388059764328
H         8.71522202771917    2.72943621001209   13.59838106095239

