63
CSD_code = MONXES | q = 0 | S = 0 | Stoichiometry = C26H31ClN2OPRh | MND = 4
Rh        3.49114953482370   19.57889555212118    7.15724836223565
Cl        4.51343147488172   20.85716027116362    5.59265041413737
P         2.13451157182915   18.80082990083220    8.76982972901201
N         3.66803024643293   21.27029081891115    8.45316536435372
H         3.12678229317445   22.01006708517800    7.99233137400368
O         3.28765489243840   17.27002669542468    5.29737073266728
N         3.97878147106150   17.89505240261252   10.44232852689345
C         1.80265234430159   20.34367724452099    9.75205525006393
H         1.06128179478956   20.93294292699543    9.20317702139060
H         1.41156102330535   20.13522539396206   10.75039247190052
C         3.13900821345003   21.08046530892324    9.82512897736307
H         3.85002626734683   20.42791613749223   10.34667674907992
C         3.36989424517032   18.16366673520217    6.01417287695046
C         3.04803775237252   22.40224023175590   10.54914489553122
C         3.85284471327666   22.65006179087066   11.65315814725342
H         4.52389037658678   21.87985560991115   12.00615900197393
C         3.80642783862773   23.87294060272055   12.29873565001395
H         4.43988134349532   24.05267296044500   13.15451597413484
C         2.95501118005340   24.86501705824227   11.84464509075476
H         2.91998948467389   25.82102707523424   12.34494920821554
C         2.14940202928215   24.62815488700752   10.74368559346581
H         1.48429457690143   25.39902793260062   10.38349304239867
C         2.19656711036202   23.40543421300794   10.09946306593708
H         1.56233575707089   23.23709605418364    9.23947827409417
C         5.04049897370568   21.69107876416955    8.49383932511812
C         6.01959789440989   20.73062823698316    8.71683603573153
H         5.72043483363381   19.68969346846406    8.80046125822232
C         7.34814176604834   21.10220512678870    8.78593170445206
H         8.10955838579419   20.35251719207966    8.94313725710418
C         7.70456518869414   22.43343336626627    8.63785494055415
H         8.74373877957554   22.72268370254476    8.68426604160882
C         6.72957604209903   23.38875014902305    8.41234431822985
H         7.00585675346772   24.42453022349905    8.28282820943089
C         5.39600990058174   23.02303504209257    8.34674572774582
H         4.63760337062705   23.77006275010039    8.15780919055973
C         0.44064289225126   18.32201215633284    8.30019167679688
C        -0.42089349370971   17.56402665663204    9.08432945488815
H        -0.10208992261091   17.19235889637025   10.04702694999525
C        -1.69645952707598   17.27797790413840    8.62872722621183
H        -2.36271296071765   16.68519141345443    9.23865011616816
C        -2.12065206191541   17.74612493905705    7.39625588553151
H        -3.11632268977940   17.51676022537539    7.04668318859960
C        -1.26633936555592   18.50355827673529    6.61027316068042
H        -1.59369011467462   18.86540684226784    5.64701258718481
C         0.00887624316084   18.78610384006035    7.06025256801080
H         0.70290038286249   19.36345236434603    6.45225717953277
C         2.58867238276047   17.61091162774711   10.12316046298140
H         1.95722693915965   17.79759588890013   10.99643220420877
H         2.41851229975489   16.57831351372515    9.78876866520262
C         4.90122661677933   17.15611233081693    9.59140769095259
H         5.89343624576210   17.59577427722485    9.71228982742229
H         4.57882156509344   17.33529921306618    8.55476426450280
C         5.00413651920445   15.64877752789201    9.84048776798252
H         5.67000241758651   15.21276462519120    9.10114112368290
H         4.03670354606065   15.15997191137157    9.75133888284721
H         5.40836116260341   15.44109431605601   10.82881631567163
C         4.27198679225068   17.84312015746407   11.86737970375905
H         4.18770445849073   16.82269487136464   12.27586676831541
H         3.51943983711604   18.46078465033021   12.36894696738543
C         5.65012856233460   18.40964994939494   12.19412685789531
H         5.73046269729836   18.57146754997827   13.26633727197764
H         5.79850998266723   19.35965675493079   11.68556847359191
H         6.44247916849635   17.72917440843042   11.89559695544110

