109
CSD_code = MONXIX | q = 0 | S = 0 | Stoichiometry = C45H53F6MoN2OP | MND = 5
Mo        3.73130959230831   11.40135687567054   14.31636467786735
C         2.88864888821989   12.52920248732226   12.94505656414887
H         2.01403753393218   13.05561584703547   13.34085439310220
C         3.08864969551010   12.95519709373142   11.51737362522759
C         4.46129838232489   12.52168941817050   10.99784083481405
H         5.26397152548944   12.93555169858887   11.60212336386794
H         4.59242054027555   12.82157026584913    9.95986461555751
H         4.52892496509813   11.44105197736489   11.05374568638800
C         2.03322401606500   12.25024808360286   10.63727169186958
H         2.12251929678368   11.17382840115879   10.75584675610065
H         2.19715250956023   12.50955722393144    9.59297575217155
H         1.02396980027916   12.53999120520064   10.90938174371307
C         2.86745974452902   14.46268777766173   11.40068914296448
C         3.83967241937381   15.32884665318717   10.91134049795588
H         4.79097723884764   14.95097593949891   10.57248899212614
C         3.61205492457620   16.69405082778761   10.83513715780533
H         4.38782265752495   17.34074377880243   10.45064518560941
C         2.40470335747239   17.22824735501828   11.24339646138930
H         2.22802780799375   18.29183668454669   11.18479455692129
C         1.42125586678809   16.37874460323874   11.72086979313996
H         0.46768510730403   16.77750413008284   12.03523843087278
C         1.65176945505845   15.01821943540483   11.79601942970058
H         0.86167177611123   14.38192945349970   12.16732023683396
N         5.02616967433382   10.69892307997812   13.38390839392477
C         5.98951440510292   10.02397335683867   12.72774050329331
C         7.36235003285001   10.30751158809520   12.93749877756547
C         7.78798303116930   11.39381503497148   13.89481991613970
H         6.87252192417377   11.84362261479289   14.30940877634525
C         8.61540868134094   10.81593928395145   15.04443156138386
H         8.06455011127022   10.02453335132191   15.54574557763792
H         8.85671599557152   11.59117302415380   15.77016604935844
H         9.54890307153127   10.40017089150433   14.67334030555480
C         8.58735709062048   12.47591739661956   13.16209772088915
H         9.54331514009328   12.08222112282523   12.82619517301213
H         8.78470800551095   13.31979757074028   13.82125800462589
H         8.04573918231370   12.82706828720927   12.28586770911964
C         8.33023600176643    9.59795846039952   12.24888313603318
H         9.37314611147284    9.81860320735086   12.42111534874315
C         7.99021515686897    8.61130964324679   11.34427469994659
H         8.75774204565853    8.06480764285263   10.81716899081589
C         6.65470285568984    8.33422262193491   11.12213286870294
H         6.38956346379060    7.56492169559161   10.41291575131134
C         5.65011312035701    9.01436800423184   11.78720555207956
C         4.21106353037425    8.64240502748523   11.51867920022292
H         3.56822114999140    9.33265280217036   12.07888856275373
C         3.94943206299828    7.21748025719983   12.01334860175871
H         4.52606036272298    6.49721475846477   11.43690134920332
H         2.89445171715613    6.97350892928592   11.91782003766651
H         4.22833385675102    7.12565504595410   13.05971373733568
C         3.85845488382247    8.75055810449076   10.03197402301362
H         4.12049010412162    9.72912135962773    9.63755637786424
H         2.78972513596705    8.59971411084930    9.89635227847552
H         4.38301883502322    7.99721879758162    9.44911617630757
O         2.44452162871353   11.99645060833594   15.86104556428349
C         1.60582396577366   11.79458745141160   16.89616789005088
C         0.76541090032004   10.50168391915827   16.86532470884334
H         0.04674654037133   10.53484746471150   16.05037575126517
H         0.23244078445043   10.38413461687382   17.80680227960037
H         1.42540067207714    9.64779043503824   16.71858495946730
C         2.40392302266284   11.76154070565858   18.23149931816173
F         3.02104793999114   10.58764543205050   18.41328971835420
F         3.37031985289700   12.69265061836999   18.26599522777892
F         1.63504022392542   11.95713335947748   19.30964524068479
C         0.63591929611091   13.01570831159699   17.00412236387835
F         0.31647553809037   13.47472843384683   15.78930669870305
F        -0.51614893284559   12.73591135403655   17.62345880451875
F         1.17053733211102   14.05662361222556   17.66292246530644
P         4.72807386734857   13.60854974260713   15.03626908336721
C         5.64616790671709   14.62229089515557   13.81407526836491
H         4.94943121467868   14.95970854910174   13.04821532131574
H         6.43410091193178   14.03942410421870   13.34816649903422
H         6.08513077618277   15.48864271526146   14.30947549951001
C         5.90779372543466   13.70095576069091   16.45082687106017
H         6.13608233345419   14.74400889709014   16.67084142153077
H         6.82918654858769   13.17730566193322   16.20142181621578
H         5.46690900054979   13.24662910774846   17.33512718308380
C         3.51547420779520   14.87133431905223   15.57047800011288
H         4.00233980433314   15.84625696909583   15.61073586742854
H         3.13672668760288   14.62592040581447   16.55832197224951
H         2.68657388786811   14.91113796386303   14.86534754519252
N         2.65898826276137    9.61658472707406   14.43741709971943
C         4.92798729483090    9.87401080251491   16.33421207137580
H         4.39418051977951   10.79984482476933   16.05953178733568
C         6.04847775383651    9.94429916418784   17.13866900331549
H         6.41708632565171   10.90302739010870   17.47496860296224
C         6.69108932066742    8.78334420590386   17.53961004178453
H         7.56302960697766    8.83730411463930   18.17392746314866
C         6.20351537849076    7.55586621187470   17.11886958177779
H         6.70571315386220    6.64754888130009   17.41838020245762
C         5.07756590942598    7.48446384425450   16.32590790404938
H         4.70946640920302    6.52174129045220   16.00723467807623
C         4.40368982431786    8.64550877372440   15.92297805623170
C         3.18221800279722    8.56250752465408   15.15279377328373
C         2.35667431146667    7.45000969202331   15.02258611341103
H         2.48789644648544    6.49377944678106   15.49132206505624
C         1.30921405145883    7.82426228443386   14.18569483098576
H         0.47410467149823    7.22065689220632   13.88564729045558
C         1.52160549111815    9.15471451154638   13.84366688841126
C         0.60859079188546    9.91781116732652   12.99948570178309
C         0.13196590833472   11.17560709579499   13.36163853363767
H         0.50843701836138   11.64724519653713   14.25456818000674
C        -0.84505725668245   11.80608746567962   12.61241082492020
H        -1.21947339949535   12.77057849038441   12.92704332107484
C        -1.35621173151633   11.19955992171704   11.47737100889411
H        -2.12276057344446   11.69025021642711   10.89568180075042
C        -0.87990320635177    9.95523596272866   11.09625046539608
H        -1.27205401785329    9.47737483648420   10.21000639961768
C         0.08524391454580    9.31826304323668   11.85131519590763
H         0.44453633865130    8.34297631875373   11.55730302359508

