64
CSD_code = MONYOD | q = 0 | S = 0 | Stoichiometry = C23H25F10FeN3Si2 | MND = 3
Fe       -0.41906517995858    3.03076005061133    1.47011548081669
N        -0.57601489570207    3.82393650606999   -0.35005175053547
N        -2.37018740649387    2.63853042302045    1.17832795049426
N         0.77338519822515    2.67308015856265    2.73818359013041
Si        1.38917815411183    4.02302180983338    3.64840192260487
C         0.56013832633622    5.53722844654391    2.82065539036451
H         1.27257638755628    6.11843930654151    2.24553217018817
H         0.13239577767931    6.19453717655293    3.56768610762140
H        -0.25136077482926    5.24047050093158    2.15687453576330
C         0.95129394342398    3.94459195054571    5.50265170241959
H         1.38851821958081    3.07079014418162    5.97499449654666
H        -0.11926061756559    3.91456230886183    5.67023847081834
H         1.33712366250004    4.81989205944811    6.01580578952477
C         3.28641801701122    4.17041471986387    3.49290498205064
H         3.64938260649285    3.83596697352533    2.52845142819186
H         3.78356977577907    3.57329798053679    4.24931679854037
H         3.60506796808358    5.19870618759985    3.63047208836016
Si        1.19928528268316    0.98767670814493    2.85447041629382
C         3.07887369041458    0.69095343894865    2.75979848575977
H         3.51243165265744    1.15600921707044    1.88124812410025
H         3.29396058183632   -0.37182587417063    2.71097025048451
H         3.58562214620673    1.09062875562642    3.63131432419779
C         0.52366067567415    0.24639173789731    4.48611376348840
H         0.24256824519724    1.01852049125792    5.19279536528936
H         1.27614017482140   -0.37247392171453    4.96277249808298
H        -0.34612542267040   -0.37920598442847    4.31376312769453
C         0.32670354615873    0.17416341471734    1.35844126855516
H         1.05328251298387   -0.13229051627131    0.61624700317273
H        -0.36118422721537    0.85859619486195    0.86101099005252
H        -0.23241561039650   -0.70760861962381    1.64993739904841
C        -1.52973492923811    3.88816214312651   -1.26786275195615
C        -2.79774030455232    3.37276551312484   -1.02314399264851
H        -3.52578786793944    3.45689786666843   -1.81323934090783
C        -3.21062162521903    2.77963225888402    0.16453462735186
C        -1.26267994242595    4.47589072378214   -2.62595131172212
H        -0.20270348049448    4.44087854795881   -2.86926196094882
H        -1.59082226654416    5.51420708849011   -2.65620716747184
H        -1.81833464002067    3.92761938500232   -3.38200978316139
C        -4.65249467065975    2.37076873857517    0.28058925356830
H        -4.97682664441862    2.36190567037959    1.31915549141037
H        -4.79254887732006    1.37298797565630   -0.13343474184481
H        -5.27954846129470    3.05795599314296   -0.28103154271702
C         0.60548843856574    4.51087828414757   -0.44516374934600
F         1.73037846283833    2.49523800240779   -0.02324537885885
C         1.81507238770105    3.82686455470590   -0.23307953741989
F         4.16435245784020    3.74533484849280   -0.05002219237721
C         3.04609579753622    4.45106430559292   -0.24720681499582
F         4.30248869628049    6.44669269005798   -0.49582740383303
C         3.11888540903277    5.82549311494496   -0.47856886331520
F         1.99964685891632    7.86120457428223   -0.89072642944053
C         1.94334631302271    6.54210578971153   -0.68480549000609
F        -0.39983855325392    6.62677908705048   -0.82810921811358
C         0.71540474770199    5.89728702787460   -0.67040852822633
C        -2.64782211378479    1.92477418074250    2.31028069600993
F        -1.89312563315753    3.77786127018326    3.53046086083845
C        -2.37073600769620    2.51269061427201    3.55868729156945
F        -2.30452189139132    2.47869492802968    5.91624277152631
C        -2.57294901058250    1.86562206907022    4.75934030748472
F        -3.27351724392132   -0.08357915493369    5.91529051978230
C        -3.06710944094575    0.55989537023075    4.76138473718377
F        -3.77089342593439   -1.33066108197982    3.53626879927681
C        -3.32802149371642   -0.06885860482842    3.54689087217517
F        -3.34110765992667   -0.05764185362055    1.19844557468312
C        -3.12363579555957    0.59922633322058    2.34949022632541

