83
CSD_code = MONYOE | q = 0 | S = 0 | Stoichiometry = C30H46Cl2N3PRu | MND = 6
Ru        3.28937827322022    0.01954967840474    6.05351886318557
Cl        2.48036656408491    1.39755169299725    7.80034349874128
Cl        3.98729599748690   -1.63782495950158    4.51719185230476
P         1.15014609953583    0.01475457909778    5.02651404155695
N         4.98928622948752   -0.01623048477631    6.83762526114872
C         5.91988840206336    0.87716350778999    6.45370496673027
C         7.19851877812843    0.85788394523876    7.01559313726495
H         7.93906476152842    1.57771862747666    6.70873008408463
C         7.49461080151979   -0.10182246155262    7.96866381417062
H         8.47554609663543   -0.13505559212491    8.41705453829307
C         6.52854820655656   -1.02421435213306    8.34494381179319
H         6.75044738748039   -1.77557078839076    9.08434717857973
C         5.26693443814519   -0.95927648352681    7.75420768665541
C         5.42790295683687    1.77328057080502    5.43795439621953
C         6.33421244658709    2.84059544245834    4.90308113893810
H         5.83486423430727    3.43497378275442    4.14283641838832
H         7.22452722485471    2.38478634078209    4.47096297493070
H         6.64933223433614    3.49433225220799    5.71601985304489
N         4.19964226005204    1.58138425220381    5.04424611912250
C         3.68533902732096    2.42225129082944    4.02623038175360
C         3.04164438552279    3.62166587824953    4.36844753174375
C         2.51323022756580    4.40750890223064    3.35293070813030
H         2.01109568945167    5.32912771089579    3.60454222732852
C         2.63461294506534    4.04192521345410    2.02711889483318
H         2.21831560312004    4.66645469528815    1.25052194432020
C         3.31834925734851    2.88802715805406    1.69876224681455
H         3.44469541845486    2.62497325508410    0.65969298401642
C         3.86156002675402    2.06807117977611    2.67888027952087
C         2.94723796549204    4.10125930649672    5.79792401928347
H         3.40600104933974    3.36109619546600    6.45806529248405
C         1.49101419274351    4.25481829521236    6.23763253512123
H         0.95158379558028    4.95544320420123    5.60381097403029
H         1.45587073087364    4.61166774994432    7.26363457587404
H         0.99456997900866    3.28847358171623    6.20658006646685
C         3.69956461450064    5.42429388489203    5.96601219992616
H         4.72806495103729    5.33359157861223    5.62271805507309
H         3.71045724794471    5.71054708115611    7.01510257247153
H         3.22085881484043    6.21992285367522    5.39957312707098
C         4.65483886280202    0.85016101880967    2.26561078206462
H         4.98355658189605    0.31206699622275    3.15836924796587
C         5.89426742567208    1.26835171369371    1.46947546533906
H         6.51005315090305    0.39633757709738    1.26200186226298
H         6.49127966752764    1.98766428415195    2.02594607732032
H         5.61275956902648    1.72153768230108    0.52149491275800
C         3.80023398487084   -0.11920744815725    1.44871386624849
H         3.40272933857465    0.35095666685516    0.55179171024315
H         2.97650854551658   -0.48259194523171    2.05699126723712
H         4.40010027557329   -0.97755009615411    1.15768034891665
C         4.12671092995623   -1.81191357639123    8.02454099557930
C         4.30264494405675   -2.90761316534301    9.03521757761233
H         3.45183329933981   -3.57747780959453    9.08713915330306
H         4.45827479764311   -2.46927168609813   10.02081475773416
H         5.18640258823943   -3.49057113201353    8.77961089959061
N         3.04634718479398   -1.53298994248778    7.36325995930898
C         1.83117802948282   -2.26031441956416    7.62946252749995
H         2.02047842962261   -3.33733134718224    7.71958797870221
H         1.16743856292812   -2.11040790423765    6.77623096948646
C         1.14992189247268   -1.72524603449295    8.89590719534139
H         1.80811262502205   -1.87170538286770    9.75435474162109
H         1.00440225991476   -0.64912519415459    8.77690776923256
C        -0.18434054552525   -2.41607485277028    9.15456250408363
H        -0.82931706599232   -2.32077668224702    8.27719574480557
H        -0.02161268698905   -3.48367586999752    9.32537031625858
C        -0.89648434235654   -1.81438423512343   10.36955224349104
H        -0.26899503122897   -1.92542756633713   11.25558145436674
H        -1.04547231911955   -0.74551958305081   10.19191187499460
C        -2.22218593899231   -2.46582777357292   10.59918919446642
H        -2.92126323996596   -2.39018186207621    9.77567707308773
C        -2.56166387181063   -3.10946743837253   11.69971693338604
H        -1.88557648082530   -3.19998214942538   12.53435861631521
H        -3.52903754555887   -3.56661810604397   11.82061375947618
C        -0.30363788581099    0.27473220138471    6.12059679580759
H        -0.10070445696793    1.13074541289980    6.76202258830318
H        -0.47335833015844   -0.59266679439643    6.75247509996337
H        -1.19175962409064    0.46441156612671    5.51917248814225
C         0.66438912953773   -1.50613618746806    4.11641549972924
H        -0.37302079224344   -1.42868536306156    3.79184210227461
H         0.79449457898790   -2.39646623682579    4.72742385687197
H         1.31653951653600   -1.60609014322589    3.25108719077598
C         0.72473983558595    1.23374307015522    3.72070506734244
H         1.43018638465446    1.15628212513097    2.89716801147749
H         0.77366326033313    2.24208373204258    4.12389026882540
H        -0.28293480865103    1.03332531559196    3.35684099899838

