76
CSD_code = MONZAQ | q = 0 | S = 0 | Stoichiometry = C27H43FeN3Si2 | MND = 3
Fe        8.35895026741021    3.58563133618118    2.15844328519702
Si        6.05191987755272    2.28689082364193    3.63278740662243
Si        6.48957061102943    5.33002438780185    3.80545654101847
N        10.29590285203741    3.80382169762832    2.26969248993072
N         8.75801803505867    3.09611380453948    0.30716853898932
N         6.89723764789813    3.74507736681463    3.25211509538141
C        11.31007624769653    3.62790829004611    1.44676845561682
C        11.10715803100269    3.24963461040746    0.12201534527442
H        11.96986313945613    3.14237370642418   -0.51520051235199
C         9.84973325113901    3.00923966729007   -0.42587636530517
C        12.73711892026656    3.79432890528902    1.90817640107103
H        13.21072794911619    4.62402830397346    1.38661373899597
H        13.30023046891549    2.89201106195411    1.67537702618402
H        12.78596708082709    3.97546301589734    2.97863803959957
C         9.78798629022186    2.68934731016619   -1.89936035092591
H         8.75998021287705    2.61100670700157   -2.24310356706683
H        10.30468828625031    1.75427055306175   -2.10750741632298
H        10.28906730332515    3.47655969948341   -2.46043322205025
C        10.45317915779199    4.44700293240606    3.50307196987420
C        10.82465180982618    5.80376475279701    3.56234557167562
C        10.94297849373337    6.41993425363161    4.79845623475439
H        11.22536297012435    7.46256682831007    4.83822770550735
C        10.71196374693410    5.72467254326727    5.97109622278452
H        10.81376371253105    6.21999130694692    6.92523479880192
C        10.35130164427608    4.39063079668935    5.91195696437454
H        10.17793531565014    3.83814623181274    6.82464326559816
C        10.21830436704775    3.74095438684849    4.69489094893671
C         9.83459739962088    2.29404331408060    4.65559239947499
H        10.28486669098922    1.75447824900810    5.48634739982160
H        10.14894206201063    1.83913564730624    3.71835254906395
H         8.75219857740508    2.20579740726274    4.73259086341374
C        11.09376402929477    6.60167529175501    2.32008962578001
H        12.16703337108049    6.72905486682365    2.17620354291532
H        10.65206398970185    7.59206338117875    2.40825193508541
H        10.68478671830260    6.10976192415356    1.44122679645294
C         7.52689501284301    2.60506615195100   -0.14103727657940
C         7.34519820746523    1.22950702755127   -0.38238745760537
C         6.10314747175970    0.77284626872856   -0.79493833020732
H         5.96857164632495   -0.28429623272228   -0.97590018951483
C         5.04478823450369    1.64286359985007   -0.98219874551542
H         4.08580587060203    1.26929348190867   -1.30912054964456
C         5.22546876053046    2.99430351963990   -0.74960604419943
H         4.40562920988983    3.68187101690534   -0.90236241354109
C         6.45092783530460    3.48862115932841   -0.33137216944455
C         6.62355676450149    4.95790470927909   -0.09771581744053
H         6.07922470107394    5.53154876538823   -0.84532468640749
H         7.67661005682932    5.23081022571933   -0.13234039559250
H         6.23426380706269    5.21626893954626    0.88544886794252
C         8.46284781756794    0.24343668143058   -0.20668097342378
H         8.87076357190056   -0.04355825675936   -1.17628739433986
H         8.09421726767726   -0.65890599422817    0.27665923148951
H         9.26608672155288    0.66241117004357    0.39382504646872
C         7.63675011015053    6.50082892561592    2.82275554736116
H         8.24797670440119    7.08913618273664    3.49644326841560
H         7.08812956220257    7.18973780101194    2.19046473926571
H         8.30647645444530    5.92144051021641    2.18812953673852
C         6.84038602838272    5.56456299489532    5.66830436793816
H         6.20537827520698    4.92820407861937    6.27440652426798
H         6.66168140070923    6.59173682159203    5.97077829900742
H         7.87236114399940    5.32528851323223    5.90285929678550
C         4.65838744561153    5.79622555006128    3.50495645898654
H         4.33367856894130    5.55498783947496    2.49811473834762
H         4.49378682479092    6.85766698767822    3.66206896981738
H         4.01316646716396    5.26040551285336    4.19304267502408
C         7.16591316688826    0.88703169335634    2.96069436342327
H         7.53039903305265    0.23169406419262    3.74365885565802
H         8.02902023651034    1.30915023886822    2.44628843085847
H         6.62276101149451    0.27738841500164    2.24885450115144
C         5.74998340415104    2.04286958684229    5.50628914544612
H         6.64225157660405    2.23047816309453    6.09446105715144
H         5.41774427665546    1.03169627326995    5.71980435197473
H         4.97905081434801    2.72071317881966    5.85707769676899
C         4.35353412985046    2.18130313468877    2.76570165097686
H         3.68099427068877    2.95520117344120    3.11831848193871
H         3.88022284865224    1.22279228325036    2.95476969057919
H         4.45607275921299    2.29396248164507    1.69154692547648

