18
CSD_code = MOPCOJ | q = 0 | S = 0 | Stoichiometry = C2H8ClCuN4S2 | MND = 3
Cu        3.78412652973655    6.18435435922041   10.36572446648307
Cl        2.50667539301080    8.06900627530242   10.46626193865272
S         3.67311928711987    4.69230134771593   12.12537663819638
S         5.13455677223207    5.87528524625161    8.51751881469973
N         2.34901484414309    4.65858247091898   14.35584600998561
H         1.71073898923877    4.98514967021939   15.06055538163321
H         2.82930544494400    3.78632426961171   14.48479440213315
N         1.95824833514427    6.50468097226683   13.04056628122531
H         1.31344828303991    6.86667043777196   13.72345357738153
H         2.12174683750094    7.05417710090080   12.18792611228337
N         5.61360886045209    7.29510126287057    6.39996353299278
H         5.53286500362243    8.07076758709257    5.76553671956917
H         6.22943058743868    6.53344528646106    6.17908612667334
N         4.09113943659514    8.22682738082535    7.85073676981454
H         3.98849582364574    9.02456819189042    7.24557466204177
H         3.54654649272968    8.20452258108466    8.72163774288052
C         2.58537602954844    5.35109301611062   13.22744346337616
C         4.91285704985854    7.23134254348579    7.54609735997734

