47
CSD_code = MOPDOL | q = 1 | S = 0 | Stoichiometry = C15H25N3O3Tc(1+) | MND = 6
Tc        2.60918469875188    1.05576266043814   13.78282789425996
C         0.87956662428948    2.03656688933297   16.30143559213544
H         0.06812105844206    1.37794629663755   16.61830515873341
H         0.71188682568433    3.00685317494847   16.77768415191363
C         2.23268023154115    1.48098089230665   16.75946615978144
H         2.99532864857903    2.25453371530767   16.64909998785386
H         2.18155360503778    1.17837675286147   17.81142714812070
C         1.80427107826081   -0.85306729017998   16.04837275394143
H         0.92841631219176   -0.61412168911998   16.65380752053973
H         2.36747888251075   -1.62033969513337   16.58585053578141
C         1.37833759804793   -1.44354110939303   14.69424504850877
H         2.24665278842117   -1.91986108279221   14.23457289012532
H         0.60393275795345   -2.20240220993962   14.85776132702278
C        -0.38797938891830    0.15145230639151   14.19942302570666
H        -0.61348932679238   -0.20163237131329   15.20688010196287
H        -1.19856417336560   -0.19783948814054   13.55511035877237
C        -0.34778258889148    1.67918173395993   14.17883305095623
H        -0.31302318649056    2.02289156833079   13.14256736353345
H        -1.25060152408761    2.08355044799899   14.65340099842925
C         0.79917304400856   -0.94378760317179   12.36957470546608
H         1.78610017414738   -1.32183971748903   12.09686289410770
H         0.58011996749949   -0.09094967459761   11.72461871649965
C        -0.23964095448951   -2.01981325845178   12.17703887436286
C         0.05046820133117   -3.34940579980915   12.46597999397670
H         1.03901922519735   -3.62355761409215   12.80324459006791
C        -0.90755867879767   -4.33281713133150   12.29245058004496
H        -0.66607367498390   -5.36058418241593   12.51518388238978
C        -2.16749499314118   -4.00252095002371   11.82174348168014
H        -2.91219891091896   -4.77046374972388   11.68344713252747
C        -2.45954209978360   -2.68666750092709   11.50716737392229
H        -3.43079816890837   -2.42521929990562   11.11647848369746
C        -1.50072762766277   -1.70304987139349   11.68119622356823
H        -1.72893331710628   -0.68477587573826   11.39622242177834
C         2.69826728015196    3.20483876334426   11.92735975479064
H         1.97350436073693    4.02998186826132   11.86899224466881
H         3.13323159297138    3.05580769216935   10.93204976291724
C         3.79113817515730    3.48004928057130   12.98018147702860
H         4.77728317617528    3.20228366558785   12.58668423401016
H         3.81456531271317    4.53174778362838   13.29124543243518
N         0.87595458765266    2.14363681933186   14.83601316159843
H         1.03554878548883    3.11494011717682   14.57846307864819
N         2.62190352952351    0.37010640177183   15.88703720102630
H         3.59595051005365    0.14657935447714   16.07823415650401
N         0.90222287946533   -0.41084124292356   13.75376435350349
O         3.66909850290219   -0.13528321060972   13.39616445776160
O         2.01517308218555    2.04865506073795   12.29096869145669
O         3.53307511726504    2.68915837304411   14.09596157148244

