47
CSD_code = MOPFED | q = 0 | S = 0 | Stoichiometry = C14H22N3O6STc | MND = 6
Tc       -1.92994793135762    0.71019234754597    7.90443690448164
O        -2.35282735906365   -0.86463004829896    8.16524230323130
N        -0.28427302570407    2.33648844159876    7.37386421832298
H        -0.90103663380923    3.13768189289854    7.28240907615239
C         0.26839912805990    2.00999063683787    6.06495050464498
H        -0.56203242458933    2.03459084977409    5.35654460634768
H         1.03510780566107    2.72915132304910    5.74394528704972
C         0.86155197956984    0.59334756745554    6.07277254162616
H         1.07427203716467    0.30089590283832    5.03985853635754
H         1.81045443430614    0.58667639898432    6.61438281369793
N        -0.06479798386967   -0.33296999305140    6.71692871891454
H        -0.55251250848497   -0.89894428284936    6.03308583334205
C         0.50669957773663   -1.19091942377972    7.75140698446161
H        -0.25460558087036   -1.93167302704099    8.00176976371026
H         1.40876303665893   -1.70921181689747    7.39656382036826
C         0.86181130425338   -0.40182176902058    9.02442380197250
H         1.77373765647552    0.17481422900617    8.85758185213614
H         1.07527705072631   -1.12605731928304    9.81560202530942
N        -0.21200658180105    0.51696921802535    9.43707026107509
H        -0.69204983317980    0.14322942616958   10.24990006032702
C         0.23323499724951    1.87786207076477    9.73055378794574
H        -0.62548133590658    2.41251832540146   10.14065078973764
H         1.04881578830717    1.89464817819275   10.46600547891648
C         0.68794788275214    2.57747035118852    8.44085484640938
H         1.66308145136965    2.19720193831078    8.12861236414612
H         0.80849878533311    3.64671810060112    8.64578017953560
O        -2.68525494560196    2.20927068989139    8.80354415752716
O        -2.89132585961579    1.57557746518441    6.48435820109026
C        -4.01835809410498    2.29979553306565    6.84402279359035
H        -4.90753419607193    1.66232930540486    6.75711704148761
H        -4.12411192454516    3.14878428273944    6.15397962961088
C        -3.85340624270808    2.77412693302678    8.31782780149642
H        -3.74118806458627    3.87003014959671    8.36562482521922
C        -5.04004538437604    2.36225416544888    9.17223086262830
C        -5.25924161458461    1.01176353641715    9.41691441389017
H        -4.58446579655234    0.27634342140516    8.99136654138792
C        -6.32410264504852    0.61558430478016   10.21002484320675
H        -6.51853245998291   -0.42128473036771   10.42866291891275
C        -7.14757896408624    1.57740591845397   10.74633066832077
C        -6.96129454066250    2.91546283760542   10.50300256271547
H        -7.64064794390520    3.62668664045750   10.94432396573004
C        -5.88947947661744    3.31461022086009    9.71546365706643
H        -5.72002582087895    4.36578797699440    9.52772688735287
S        -8.59045834458063    1.02682099609162   11.73219778425262
O        -9.49388906322094    0.64600110580594   10.65652490662113
O        -8.06131297023192   -0.07048795421492   12.51980934150826
O        -8.97652736507309    2.20661768290839   12.48144883611989

