70
CSD_code = MOPLEJ | q = 0 | S = 0 | Stoichiometry = C26H37ClN4SZn | MND = 4
C         5.84612942702945   -1.11903663946574    4.63409477969582
H         5.83616605974404   -2.11510236482213    5.10068510602809
C         5.03570349664009   -0.17562929715515    5.57645485649376
C         3.77671442128126   -0.92363215647689    6.01604671199386
H         3.17426261466630   -1.19457275956722    5.15218360246840
H         3.17928433655521   -0.26932385434342    6.64428844381780
H         4.02833557600988   -1.82197745766887    6.57964163181028
C         5.89048699420248    0.17087809199350    6.79361067544218
H         6.72670905802992    0.80798109879666    6.51414727587770
H         6.27195985629528   -0.73082533520612    7.27392860075555
H         5.27977034086469    0.71858667786446    7.50586530659162
C         4.40110148118207   -2.27296584319449    2.94621870319790
H         4.15199461741168   -3.07411831550266    3.61231004157794
C         4.04360553739274   -1.99647307151157    1.65893643839995
C         4.71798284432139   -0.79943240406272    1.33473706720094
C         4.29748901430090   -0.39280981926457   -0.04102397895343
C         2.82564736786289    0.05088610392876    0.18357641320815
H         2.76787348166994    0.77624986734336    0.99490341213661
H         2.43789018561299    0.52695468738865   -0.71534321907327
C         2.07659341091878   -1.25565497177584    0.51606718354633
H         1.60334358241514   -1.21603121307498    1.49701643111289
H         1.30464790282237   -1.48002533682788   -0.21823511739099
C         3.18749911992201   -2.32976713953615    0.48305305777850
H         2.83141628386551   -3.35399836059003    0.40414171723695
C         4.09940551445705   -1.81533130643705   -0.66614231827989
C         5.40082578279587   -2.60859141007341   -0.78335276188650
H         5.95873267991168   -2.61629644335000    0.14960745106000
H         6.03397205013344   -2.17592785660755   -1.55423550763644
H         5.18294469741247   -3.63834951518522   -1.06077029069700
C         3.43196124225097   -1.82050499124840   -2.03714131081518
H         2.52605901123849   -1.22656746074508   -2.06914013969864
H         3.17927402690638   -2.84228651861770   -2.31468758323438
H         4.12009403372806   -1.42917759174244   -2.78286297003411
C         5.16245907311631    0.60113616050611   -0.77959815781496
H         4.74601052805532    0.81180273220142   -1.76180445019334
H         6.17216194465412    0.21617878208189   -0.89775921202022
H         5.22555864966501    1.53129538577766   -0.22079728336814
C         8.30115669152428   -1.54015249564149    4.82388777869121
H         8.16491629313380   -2.54525888718879    5.16914028218866
C         9.41380488041602   -0.77860909975211    4.62087748397918
C         8.93139954685038    0.46960373365278    4.16788961001131
C        10.10765655866627    1.34011695467466    3.86719963116418
C        10.69107057072817    0.68115354762063    2.58833481429999
H         9.91382900468204    0.57361235387794    1.83285281113991
H        11.47302646417969    1.31194322326674    2.16987446548739
C        11.23900754607443   -0.67690577351187    3.07226534236796
H        10.76495476259521   -1.51532307746258    2.56190513422942
H        12.31390308630126   -0.75883044706947    2.91991994333985
C        10.90289360078522   -0.68952774465665    4.58104398283111
H        11.45730907577347   -1.41810880624127    5.16725580662229
C        11.08920730932036    0.80588715889288    4.96580013019901
C        10.62408813626941    1.10941881741724    6.39000361997638
H         9.59333717520284    0.80758973462428    6.55742472692261
H        10.70278982516008    2.17539715472943    6.58922702632019
H        11.25328228706907    0.58293631496192    7.10522755022490
C        12.52374212775060    1.30548053888952    4.83427103487828
H        12.92350497660235    1.18694992123905    3.83404660836391
H        13.16369272092373    0.75851755783988    5.52420014716369
H        12.57126836935899    2.36006213935969    5.09534813590815
C         9.87050033660934    2.82898022944041    3.76979253999729
H        10.80551187543401    3.35084507302921    3.58105256806015
H         9.43354919710953    3.20752400226037    4.69092681067256
H         9.18370356928720    3.03858406315910    2.95329638828670
Cl        6.98455762696836    2.69870092912685    1.54456790600267
N         5.43504411872846   -0.36771764946639    2.34838569212415
N         5.24635841214448   -1.27509024207530    3.33319146949969
N         7.62155684255589    0.47197908178645    4.09645003305011
N         7.23041496115980   -0.75553386692698    4.50605483441303
S         4.45479182364455    1.38347090477825    4.78554925963964
Zn        6.06980398165996    1.51896450152871    3.13231582561959

