80
CSD_code = MOPMAH | q = 0 | S = 0 | Stoichiometry = C33H38Cl2N2O4Ru | MND = 5
Ru        6.87046344980570   10.79904907927680   12.56928181634022
Cl        7.93226023258970   11.44276406730318   10.64084347966794
Cl        6.61207355007177   10.08456419716373   14.74598895808416
O         7.92151111753666   12.59019072097378   13.51334729360919
O        10.23937947577752   14.69955947927860   13.99124306290865
O        11.02855858298824   12.94299672138786   12.87259040564792
O         3.84911389923367   16.18991341859120   14.43743997599392
N         6.83612338577825    8.15078936724998   11.48751670216704
N         4.91720538272772    9.02745328407720   11.00874691698945
C         6.06134314941535    9.23264964755884   11.65007163060395
C         6.19996251173287    7.09306955119901   10.71514877120366
H         6.79698127458379    6.85641322161446    9.82978426485871
H         6.10200148785833    6.18527122762007   11.31915979339074
C         4.84899648649509    7.71968468624053   10.36074366858184
H         4.71322441458796    7.83835555549395    9.28254705927495
H         3.99887099097101    7.15068167160736   10.75024908312116
C         8.06259171708130    7.95025037859649   12.18239260674715
C         9.28095530674169    8.17255735252840   11.52840128762432
C        10.45558417756303    8.02893703591278   12.25460054878254
H        11.39902137917428    8.21688581629513   11.76196265958481
C        10.44590461321327    7.64136950587119   13.58628347091472
C         9.23086224767136    7.32988664901187   14.18033459699866
H         9.21304545240408    6.97464063850210   15.20030289312301
C         8.03166724120472    7.45940341066165   13.49502131830691
C         9.33141890232916    8.48999630368829   10.06625710626709
H         9.11525063500969    7.59200358669090    9.48623801620892
H        10.32048834142732    8.84318537552950    9.78755811154373
H         8.60455748422212    9.25587414206759    9.80391126158145
C        11.72207065190824    7.50631355913296   14.35992966351479
H        11.99130618372817    6.45453045553996   14.45647680178194
H        11.60740852049710    7.91162812341212   15.36319857478170
H        12.53875025356236    8.02134527097120   13.86031312475120
C         6.75664546534626    6.99937975531389   14.13453601911015
H         6.78314439965160    7.18573515907664   15.20407954785083
H         6.64112058820769    5.92515235743238   13.97599517650407
H         5.89173603597238    7.51301979409070   13.72442149870883
C         3.79868168711108    9.89684863645821   10.93340570836485
C         2.87137382516633    9.89785028738772   11.97661224604700
C         1.75541803935985   10.71361053961855   11.86801532367947
H         1.03198582182552   10.72581363550122   12.67045886598786
C         1.55580785973311   11.52208184766421   10.75751106103452
C         2.51014924260687   11.52271837720973    9.74954336235814
H         2.37640790213509   12.17028353866376    8.89500192702367
C         3.64004731366416   10.72144279228179    9.81955507340091
C         3.12218713460603    9.08369592179300   13.20722247258640
H         2.30805655133017    9.19759629170601   13.91706730400211
H         4.04714316526918    9.42300081964149   13.67877633538105
H         3.23037224172632    8.02635461667992   12.96975946192930
C         0.35552988356317   12.41422960924835   10.66571138379349
H        -0.45611686959290   12.03973794529211   11.28435505883012
H         0.01030820517421   12.49385344385704    9.63743030880158
H         0.61081508656975   13.41621989191179   11.01160428305367
C         4.69241070047889   10.77369121199553    8.75667699437183
H         4.52694028403531   11.62198043403635    8.09872018609917
H         4.68926408920399    9.86800347875113    8.15071069008203
H         5.67561648560576   10.87370921032629    9.21608174073931
C         6.97812374962259   13.52676746225896   13.84245763717671
C         5.69069302519026   13.26787010399634   13.29840745078368
C         4.68070957374659   14.21157185632096   13.52226562024195
H         3.69644009673675   14.04606075393506   13.11303507191518
C         4.91216905101989   15.35040766294236   14.28277454764655
C         6.17644778095611   15.56104958836849   14.82820453895785
H         6.38886126659835   16.43262602489009   15.42524025034751
C         7.20510459322064   14.65491725330608   14.60207307937487
H         8.18141507781929   14.86721051049873   15.00687903329482
C         5.45519287166514   12.06072456654326   12.59211736179965
H         4.45752485009737   11.95900705597820   12.16579549108295
C         9.14443772457128   12.51041484628788   14.22564010339362
H         8.96079240780927   12.65068046724263   15.29836026175527
C        10.18055541602391   13.54144384816430   13.69603162628195
C        10.72083652861166   11.56212423903342   12.70107058943120
H        11.66195450292823   11.01200539285560   12.68081680393074
H        10.20255303142722   11.44165910049969   11.74084805717101
C         9.82049379806008   11.18676146304608   13.88064069410482
H        10.40070964110039   10.82014258192788   14.72652720627383
H         9.08485098637361   10.41920025111323   13.60436680460727
C         4.03025604252146   17.37192580891378   15.17934030348486
H         4.79232614942120   18.01657293917590   14.72975693589493
H         4.30041095841037   17.15855257095222   16.21865361474298
H         3.06884323743331   17.88268055474791   15.15655996167750

