31
CSD_code = MOPPOY | q = 0 | S = 0 | Stoichiometry = C13H8N4O5W | MND = 6
W         0.66687304767195   18.71673821707348   11.89162790918877
O        -0.41801017722639   17.67618802048647    9.13815996372354
O        -2.12319326268518   20.05557776573348   12.42683128180546
O         1.78914577339983   19.93907367979717   14.55520449783159
O         3.43796675522025   17.34595417727075   11.33897585183531
O         1.64132490236205   21.29648544185852   10.42696243294625
N        -0.04678571170239   16.87091441235374   12.94259497386273
N        -0.66047222014316   15.46918186573314   14.54935948064800
N        -0.92206159435561   14.93129249098386   13.35927054995999
N        -3.13234660369159   14.85547816699414   11.77033983005066
C        -0.03171252386928   18.01987424508887   10.15728172582075
C        -1.11073218770807   19.56004928823412   12.24512368280182
C         1.36989649023919   19.45585072031490   13.60971469452486
C         2.42645055503025   17.83210161455450   11.54995809784266
C         1.28470430400282   20.35019645118849   10.96337399654406
C        -0.13027006467880   16.63281495146858   14.27077954539640
H         0.20179948583538   17.31502173198149   15.02901325520643
C        -0.55599227758595   15.78211302808862   12.39392111143829
H        -0.67551171533609   15.58595643072458   11.34715163637477
C        -1.62088250410549   13.68487800396464   13.23028944358685
H        -1.64862258810012   13.21838983414565   14.21630194128519
H        -1.07744326952912   13.03521373044923   12.53506996569206
C        -3.02192144841798   13.92130672737899   12.70350102459382
C        -4.32486113558614   15.11753147972602   11.26826763898431
H        -4.34997067400924   15.89342581050973   10.51531229032883
C        -5.47510907209154   14.45385647651269   11.66771004136696
H        -6.43050195467268   14.69969686954672   11.23292691253192
C        -5.35950556626692   13.47241882627754   12.63913085908139
H        -6.22891410032021   12.93128695795912   12.98182738155862
C        -4.10982348721359   13.19833917720259   13.17343547038343
H        -3.98291717445465   12.44549340639055   13.93568251280520

