48
CSD_code = MOPSEP | q = 0 | S = 0 | Stoichiometry = C21H22OPReS2 | MND = 5
Re        9.85783261606308    8.96881727532939    1.87741722753475
P         8.87631135927041   11.03474508566058    2.70527333820005
S        11.71452654778826   10.36232686754482    1.95713643280706
S        11.31847577754237    7.11870972404451    1.73072751109136
O         8.75634701221647    8.50393105213931    0.71189477408339
C         9.32473324417850    8.10195142479420    3.79904066864173
C        13.27356691647648    9.41535627436537    1.68856758205143
C        13.19374561345029    8.64568623335139    0.42109178730602
C        13.93178330534687    8.99593292351591   -0.70157504710914
C        13.82694012987289    8.26221739524082   -1.86853877400428
C        12.96763044429714    7.17552105134255   -1.93137277240136
C        12.20504744480124    6.83080134127066   -0.83301375272250
C        12.30757821648080    7.56838267056387    0.33930446697363
C         9.36739920494033   11.62791073937641    4.36141894386927
C         9.15577443562869   12.41331757116232    1.56149379200680
C         9.60232204919496   13.67576434227210    1.92748758764752
C         9.77239473155970   14.64769920457729    0.95575302981057
C         9.50187597265003   14.36483213432513   -0.37213953768922
C         9.06488994566363   13.10098286564913   -0.74054370627655
C         8.89499429023582   12.12651826444838    0.22239593584108
C         7.05710201431515   10.99577356222891    2.77876580104719
C         6.35924567037826    9.84046314399155    2.45031738392256
C         4.97565242534029    9.83406641046400    2.50116335465667
C         4.28795310302047   10.97715234652609    2.87226795314686
C         4.98255321965706   12.13692358239362    3.18010426362105
C         6.36340676051177   12.15031019847470    3.13065139543621
H         8.40980767445618    8.51722490857274    4.22921312259169
H        10.15139848875144    8.28219246323238    4.49457642619482
H         9.19813525057407    7.02282327983094    3.70772007333136
H        14.06859283033560   10.16022584151337    1.67020700973517
H        13.38693325640111    8.75164902103124    2.54894184090819
H        14.59978460136380    9.84435987181548   -0.64997717355181
H        14.41496368689867    8.53858131088390   -2.73122233683158
H        12.88590789954852    6.60150027812570   -2.84245454401192
H        11.51811138711132    5.99909631798909   -0.86964628248671
H        10.43623379547258   11.84094686109211    4.35396630595393
H         9.16280911164669   10.83913195443718    5.08451617375836
H         8.80127145955972   12.51880536085298    4.62961813999797
H         9.82888440361616   13.90339389171438    2.95859724576139
H        10.12311302078424   15.62982099068889    1.23788901821095
H         9.64044900900918   15.12792331117426   -1.12366911263230
H         8.86608439740650   12.87732134560218   -1.77796972449950
H         8.57695611919119   11.12342019090575   -0.04470948980585
H         6.90549199674036    8.95599166633204    2.14445369214793
H         4.43448289068817    8.93518930147144    2.24724550170343
H         3.20892754129084   10.97033871079190    2.91352512734042
H         4.44554522891627   13.03300957729760    3.45462678042992
H         6.90373349932742   13.06135985967320    3.34996256622229

