32
CSD_code = MOPSUF | q = 0 | S = 0 | Stoichiometry = C10H17BMnNO2 | MND = 8
Mn        9.01473708454961    7.04253184743027    0.72288127338467
O         7.67619259484907    5.79957637681062    3.00691691026929
O         8.84032061498291    4.61632894544318   -0.89849552849352
N        11.84723217286638    4.91586417632331    2.56614611061028
C         8.96766770150377    9.13776919573197    1.12592229502083
H         9.23747432361364    9.72206263682222    1.99679078444868
C         7.66346902881100    8.69121563570122    0.80925071438799
H         6.77711739690538    8.84531367415920    1.41180140471270
C         7.68810310547143    8.16699744302164   -0.50294859004255
H         6.82224249957386    7.87051113301758   -1.08133505347861
C         9.00519847328072    8.32462380693121   -1.00758425721793
H         9.31082082422349    8.15264118336245   -2.03097158778942
C         9.78166461274721    8.93574230083236   -0.01080997962628
H        10.80212721792818    9.28024569414709   -0.12646516738025
C         8.24218590196024    6.27649471802446    2.10468990354679
C         8.93525428270546    5.55971817180716   -0.22744415510658
C        11.06503213761502    3.87388359764912    1.89558952890690
H        11.52381404162352    3.62679822822824    0.94155013402851
H        10.05675572253559    4.25220367566052    1.70009062314928
H        11.00739250520886    2.97660131484373    2.51461880842980
C        13.18604013124314    4.39114774371446    2.85683977664594
H        13.78447027348289    5.15985815943911    3.34021677537435
H        13.67774299616389    4.10816004965615    1.92935759775167
H        13.12501187393084    3.51918063409205    3.51116743313349
C        11.18901779501651    5.26261522580192    3.82820492120270
H        11.77276213960402    6.01524576789621    4.35278503538649
H        11.08371057291916    4.38141464069394    4.46384541620540
H        10.20343508738427    5.67342057204141    3.61423618628405
B        12.00060477357684    6.21493652749970    1.62845332999237
H        10.77367536605714    6.61704027752730    1.32877256832725
H        12.56246986324096    5.90592774201776    0.63817364150264
H        12.53325688442529    7.06942890367147    2.24535314643274

