44
CSD_code = MOPTOC | q = 0 | S = 0 | Stoichiometry = C19H23ClZr | MND = 14
Zr        3.05674174666351    0.79915041801538    1.92246071593757
Cl        2.52813500464177    1.13672763863865    4.20982873678714
C         1.92743723342965   -1.35440127189915    2.36218565252409
C         3.10797748824659   -1.75337867073157    1.68257272121245
C         3.18564856622592   -1.12179570972685    0.40615237258619
C         2.00441738066260   -0.29864911061761    0.26681691145659
C         1.84904490469135    1.07083742645000   -0.17143249460494
C         0.95049113851810    1.70491624536299    0.74517480955594
C         0.54182039151744    0.79629335418293    1.74871201511848
C         1.21900038430249   -0.45099765711686    1.49374368177636
C         1.48301776561446   -1.87836813212066    3.69620141146921
C         4.08748511072043   -2.75688598077973    2.23091480138733
C         4.15989592457137   -1.49451141189904   -0.67969982730924
C         2.25362618459369    1.64524046083879   -1.50393803000244
C         0.43508186083421    3.11435413837304    0.61712173035587
C        -0.48224946203376    1.06557236700550    2.81350398340754
C         4.96224743677271    1.55789645928549    0.54886644021390
C         5.50799014750744    0.79917751584261    1.61306036306730
C         5.26664064627834    1.50110744035002    2.81381012037920
C         4.56780934219387    2.68855631671889    2.49589211712888
C         4.37199687072243    2.72233417246336    1.09886931226505
H         1.13628224724125   -2.91221835466460    3.61100386275864
H         0.66872919683461   -1.27451399308457    4.09129041798824
H         2.30657273695457   -1.85723863806752    4.41377811723243
H         3.58009046561889   -3.69328496129006    2.46708235036114
H         4.54511396774008   -2.38580906905841    3.15446915755001
H         4.87548147219393   -2.96944819829106    1.51142647946612
H         3.98618407134974   -2.52250553212836   -1.00910616748180
H         5.19640347215074   -1.42710016043096   -0.34382937664266
H         4.03613225572218   -0.84945836259732   -1.54656872653510
H         1.37659870482926    1.78012457261786   -2.14256132156277
H         2.93489342468349    0.97367861876913   -2.02154184729463
H         2.73908891637849    2.61817817351481   -1.40305874863359
H        -0.61625461785883    3.11416566789371    0.32228952488705
H         0.99338022631601    3.66728056456343   -0.13628566982806
H         0.51614069667234    3.64104725962554    1.57152089026839
H        -1.14686976425723    1.87429691686656    2.51091376732636
H        -0.01247204850118    1.34679456468842    3.76062903620706
H        -1.08433155317087    0.17389672730927    2.98557492424722
H         5.10044486410942    1.35803749442949   -0.50483600615423
H         6.13310210425810   -0.08230658560482    1.51565083237081
H         5.63429325753815    1.22999139254370    3.79683830836567
H         4.30997811645883    3.47498339129048    3.19561145196944
H         3.97926172006336    3.56553250246942    0.54009119842208

