44
CSD_code = MOPTIW | q = 0 | S = 0 | Stoichiometry = C19H23ClTi | MND = 14
Cl        2.24679436086370    8.41789382055260    0.10057178501097
C         3.12204437072469    8.63092558284257    4.20247020740462
C         3.98546942770654    9.29385537601428    3.27684531672497
C         4.37732082241253    8.40449806669595    2.24297375922730
C         3.71720578524275    7.17547898889801    2.48414670987103
C         3.21028702543005    6.07170664513897    1.70992287120943
C         2.00306409618792    5.71587693853597    2.28109700622832
C         1.74676637313614    6.52118207001752    3.46937304858125
C         2.93603869406996    7.29239882590473    3.70209907987163
C         2.85162919687300    9.09708726076916    5.60349209329321
C         4.53245795851653   10.68240087181903    3.44210094814039
C         5.32216285111081    8.70800635180336    1.12624533629891
C         3.85091930086189    5.52664935273885    0.47790319262454
C         1.06059488573458    4.65207459897321    1.80957293345649
C         0.74721138120253    6.09945427766871    4.51022897133868
C         0.28860555210015    9.40771592535416    3.77075841995347
C        -0.37358953310869    8.65160273032771    2.78006255475244
C        -0.11894879252305    9.25653486355739    1.53356855935490
C         0.71546129487606   10.37840680702656    1.75180642127086
C         0.96403161526715   10.47114044308362    3.13398464074999
Ti        1.88976127788612    8.48069695254756    2.34892396736786
H         2.15595887628616    8.42728528160917    6.10441712171070
H         3.78567751086460    9.08922130136514    6.17169097167236
H         2.45257691077453   10.11061163816733    5.63814316176914
H         4.35039056179943   11.27887846974489    2.54585062413709
H         5.61119788445485   10.64357400124540    3.60695445191273
H         4.07938002643075   11.18336913382283    4.29480037504894
H         6.02725243119641    7.88697769837333    1.00145798761996
H         5.87567565333027    9.62413016987955    1.32105242098859
H         4.77436535492486    8.82360621667337    0.18831851370583
H         3.62565220100018    6.17346067968682   -0.37252475464026
H         4.93216070961934    5.49203387724907    0.60091228550145
H         3.49049539733678    4.52488842851788    0.25524234039929
H         0.06669819992827    5.07127206888601    1.64246543824812
H         1.40369479302717    4.21519523994087    0.87593693248763
H         0.97343433811474    3.86014292383419    2.55559491357988
H         0.56293716381546    6.89163194968749    5.23400538448025
H        -0.19954777198384    5.80913367590779    4.05686834708175
H         1.13257015360864    5.23263934929860    5.05438716425314
H         0.17676277149843    9.27979923226472    4.83665390944627
H        -1.07217050188470    7.84306180742720    2.95495844242475
H        -0.55832216125918    8.97104340259744    0.58499585259165
H         1.02988268947134   11.08766279405089    0.99516978262417
H         1.48058886307324   11.28609390950086    3.62550051022555

