32
CSD_code = MOPTAM | q = 0 | S = 0 | Stoichiometry = C10H17BMnO2P | MND = 8
Mn        5.47800919587840    4.59566345340168    2.37137567997355
P         5.38187091136751    2.94084352338610   -1.40065300156045
O         8.13333326790078    5.29069158707935    1.36470779810380
O         4.09027937629941    6.30624112561022    0.44888821183012
C         5.95927137645984    5.25524003469080    4.33600229077986
H         6.70448531785808    5.95658368726814    4.69040080279911
C         4.60687841111780    5.55748790454164    4.05967310237023
H         4.14153069495120    6.52984109830208    4.16425591363529
C         3.92670649355224    4.33509256462950    3.82563956636871
H         2.85375807563395    4.22119799436076    3.73870621288313
C         4.85215437302905    3.28643936547578    3.99358029523706
H         4.61692971524952    2.22895536670020    3.98985711223844
C         6.11073272404133    3.84587771651886    4.27800970559190
H         6.99036233150101    3.29590723196064    4.58537756035212
C         7.06882207463316    5.00063385278088    1.72883902360833
C         4.65306429103846    5.61221263863767    1.19932164645621
C         5.75815853801088    1.80407712885138   -2.78482619767792
H         5.03450326909118    0.99142664819491   -2.78664877267830
H         6.75150976105698    1.38661470995739   -2.63432248033278
H         5.72206159157016    2.32856366743425   -3.73808072147161
C         6.58667357087407    4.29461390351467   -1.58811569645714
H         7.58566230832942    3.91429146232411   -1.38420076828912
H         6.34924362038332    5.05648160120830   -0.84102570135759
H         6.54867810025996    4.72066039842363   -2.58890452706134
C         3.78922417158841    3.69871634737903   -1.86631656055353
H         3.00962646366167    2.93988407674967   -1.84237575672917
H         3.84459370847346    4.13778454120638   -2.86074489657453
H         3.55486869538604    4.47254708069236   -1.13760206365465
B         5.41920641335683    2.09717753428989    0.32174234658955
H         5.35079799161547    3.09072809507183    1.18908808737989
H         6.45227119387453    1.53444905600381    0.43365052210280
H         4.46333197195114    1.41147460332507    0.43400126611841

