59
CSD_code = MOPVUK | q = 0 | S = 0 | Stoichiometry = C24H33ClHf | MND = 14
C         3.34157810282549    7.25373106685236    9.08059807271455
C         2.46590627895921    8.10050641868347    9.74574366275668
C         1.32626965629661    7.35420675723039   10.25988219114423
C         1.50904491446280    5.98820830344084    9.74156819287512
C         1.25475998742864    4.68951053236770   10.38246868955963
C         2.37512522470474    3.85335483086673    9.98497605138066
C         3.29743570305032    4.59402909043088    9.25038022907727
C         2.81098231156566    5.93088644748066    9.16834602355100
C         4.64990092539675    7.62525055280717    8.46322368203343
C         2.60349008579431    9.59152239710806    9.84651271797408
C        -0.03190547662348    7.99392990855525   10.42928653304377
C        -0.13578517555428    4.14063507784819   10.59653309368202
C         2.45937543751123    2.37372769061660   10.23093515813763
C         4.60352533457294    4.11216030284384    8.70999859499462
C         1.34294897120639    7.22578657898617   13.61980502878327
C         2.68686617843730    6.85738039769324   13.92602773756795
C         2.74556823616758    5.43280383155185   13.98951337628861
C         1.43963583010443    4.92803209227967   13.72248028758158
C         0.56931008205521    6.03442407633043   13.51369977183064
C         0.82002049347857    8.63013392971547   13.72693847807185
C         3.78137414381471    7.82695236616216   14.26454960395133
C         3.91202946938453    4.59136673581807   14.41805610139786
C         1.05361130355612    3.48948224830347   13.92285082877101
C        -0.93081893199407    5.98021417765866   13.53703440188321
Cl        4.66799106727808    6.09456981039722   11.61510531716558
Hf        2.37264526150246    6.05029835652398   11.76131080195403
H        -0.82541733087087    4.93727446498669   10.86682654835499
H        -0.16398961424614    3.36924878306871   11.36379635315087
H        -0.49659848292127    3.69279413941675    9.66694083287347
H         3.40813516966005    2.10958305564541   10.69917265642784
H         1.65050108315112    2.03722366808709   10.87494182866310
H         2.38982144648620    1.82649743814940    9.28954543299946
H         5.42646009823055    4.57580369666888    9.25565987093383
H         4.69101438529482    3.03277837136200    8.80114782978568
H         4.70265508407627    4.38392530824198    7.65989832676180
H         5.45577988123360    7.50098561510483    9.18920943556099
H         4.86125210531739    6.98109578065448    7.61318271251484
H         4.64528375138306    8.65986891385139    8.12727610449630
H         2.08480484442992    9.97452797785197   10.72376141700381
H         3.65108910553994    9.87672934391839    9.91584006355485
H         2.17680228883129   10.07691178483236    8.96633836464308
H        -0.72627545328834    7.31775574816453   10.92458678538336
H         0.02300009232445    8.92406610097416   10.99087140493053
H        -0.44589136693231    8.22907108537862    9.44531984470440
H         1.65458134107203    2.82030849045793   13.30493242280369
H         1.21753868796160    3.20793499395833   14.96515722393789
H         0.00287984597207    3.32560658163132   13.69816076648334
H        -1.37633254672996    6.78591635169161   12.95751045508240
H        -1.28097381890660    6.08668349190485   14.56667130359538
H        -1.30704938462837    5.03386592111144   13.15768587638735
H         1.42992361794757    9.33130642521795   13.15614317107077
H         0.84495045900055    8.95124021269725   14.77089050747671
H        -0.20886656647112    8.69808727520823   13.38418719994731
H         4.75896209295748    7.35639664752309   14.18956883801864
H         3.65656554582751    8.19506509693760   15.28580272295101
H         3.76518001481401    8.68682181647732   13.59288510507496
H         4.85263547068866    5.11566352947676   14.26607546652646
H         3.82668010398594    4.34384411189583   15.47912011567667
H         3.94801263345182    3.65681379898146   13.85696838408777

