84
CSD_code = MOPVET | q = 1 | S = 0 | Stoichiometry = C42H36NP2RuS2(1+) | MND = 8
Ru       13.67961630870339    0.38591408030670   12.11937201823798
S         9.74509993735105   -0.54682818195445    8.39965590935581
P        13.22347272635204    2.39879644150826   13.10195018004497
P        11.94624097553555   -0.36589378841780   13.40489081595174
S         5.28276032432638   -1.15696616035353    4.78128000156457
C        11.41834067982271    0.78916108652610   10.07598966887542
N        12.28284822263995    0.70181713347160   10.84961314441396
C        10.75480574576397   -1.41946363982996   12.53476372931737
C        10.36049991890625    0.88031720750634    9.20523341965638
C        14.53656629747309    3.36365669593773   13.89586200704655
C        15.91843804913841    5.31452348300223   14.10439281662704
H        16.18681976954543    6.30758542528744   13.77727768752526
C         9.49050726146131   -1.01649690474732   12.12074938495068
H         9.10918958603056   -0.04047202473602   12.38193077582289
C        11.22588522815093   -2.68347413703762   12.18115505457079
H        12.21517624607845   -2.98316187060777   12.50614682441858
C        12.67327812230914   -2.49693474632853   17.39538631164356
H        12.84418809310035   -2.98960076019625   18.34013534766112
C         8.50006566098729    0.39165441962103    7.62826417373681
C         9.62695507966430    2.00438052341047    8.86907817321236
H         9.85567364082632    2.97947862744470    9.26212221686455
C        15.84541958329421    0.72220118776362   11.59936330778201
H        16.39850379884817    1.64990528207632   11.53011484945467
C        12.23361118239712   -1.24393257450707   14.96529809697965
C         7.48266913361549   -1.50293510467122    6.44378981918059
C         8.58806645163410    1.72534798032173    7.98932400963992
H         7.90710088052472    2.46808742337786    7.61502448997619
C         8.70667591177412   -1.87811049085874   11.37173391602825
H         7.72344298111875   -1.56464647646925   11.05357700334542
C        14.88712436256801    4.64108398659497   13.47253217783330
H        14.35317890485505    5.10736685349701   12.65709836433782
C        15.23990863128038    0.03108278899660   10.53259820886257
H        15.22540247803978    0.34612270100954    9.49721378155022
C         6.52770758227679   -2.09000168925580    5.57261032510127
C        15.13394170438094   -1.31641628378575   12.38732683175519
H        15.03433400573686   -2.19630928818753   13.00999589265473
C        15.76350150608022   -0.10247464433206   12.76596786253508
H        16.32122276690659    0.06528140930368   13.67845351632652
C        10.98748150300063    1.11571176159008   13.96940185574954
H        10.45912905234490    1.52126256701057   13.09776118733703
H        10.26764508845136    0.83241170113078   14.74360778751211
C        11.27340346111866    4.29609250187867   12.21418623298032
H        10.77314998341334    4.22695530557216   13.16835347665351
C        12.43012686626474    3.56953900266566   11.95817954779337
C        15.23494365814820    2.76561042367928   14.94322772477558
H        14.96494081043311    1.76655366272302   15.26077448695639
C        10.43923637875828   -3.53892795264867   11.43572342994226
H        10.80605323107778   -4.51861452078909   11.16922376003380
C        14.77391726389075   -1.22562657645191   11.02026848213772
H        14.39269433708310   -2.03352092997284   10.41065162564238
C        12.53527835341162    4.52602343404970    9.74676116925934
H        13.02570709030111    4.61718298441636    8.78937140962541
C         9.17753320154466   -3.13374598882766   11.02735186656509
H         8.56125762461473   -3.79761674334263   10.44074491850219
C        16.60413905400532    4.72048524648697   15.15073021032507
H        17.40787522087780    5.24999363974213   15.63861030170434
C        13.46627311782618   -1.12830761791237   15.59680973256304
H        14.24864503380773   -0.55132915976339   15.11840435721106
C        12.00464266666380    2.13656275480427   14.46884954750221
H        12.55697765617179    1.73135281862421   15.32416372362022
H        11.54458303309279    3.07880988570367   14.77825876814776
C        10.75266377016792    5.12910472395070   11.23720309845631
H         9.85319397529915    5.69098258523104   11.44025834259792
C        11.37872833187295    5.24631937940258   10.00745222225900
H        10.96716318117521    5.89857735978442    9.25209219908863
C        13.05278505262907    3.68866278570274   10.71497243934547
H        13.95120881709961    3.11210052493009   10.52270670450179
C         6.42805548604495   -3.41938498694379    5.22201332292506
H         7.09832767937765   -4.17331380832116    5.59454794216029
C         7.54274486650256   -0.18871624247256    6.75545941000969
C        16.26085158289094    3.44420378017045   15.57104432971382
H        16.79652836507885    2.98109158845660   16.38613296986678
C        11.21651295033856   -1.98941084910040   15.55548584298475
H        10.26021374405949   -2.08118888705034   15.05895778560726
C        13.68547084641286   -1.75260148926128   16.81137646615770
H        14.64363840209936   -1.66380535410620   17.30112656426371
C         5.37324548440112   -3.68045404687576    4.33607809650670
H         5.13956304146315   -4.65629850956196    3.95081550834923
C         4.67123073033072   -2.55766898382987    4.01238837692300
H         3.82395864245851   -2.47108088408511    3.36135385683019
C        11.44226479268190   -2.61441296366748   16.76774969403391
H        10.65687401836029   -3.19657403018671   17.22531025036455
H         8.20692283962836   -2.18438919002696    6.87550256526775
H         6.82177997390044    0.49455332680300    6.32638429446976

