59
CSD_code = MOPVOE | q = 0 | S = 0 | Stoichiometry = C24H33ClZr | MND = 14
Cl        3.52148337863939    9.88413750906497   11.45242325380301
C         5.16829495363368   11.30289135821170   13.61375783789163
C         6.18023517202515   12.07219957547001   13.00562464468590
C         7.37291800119921   11.28729263528625   12.82897291520376
C         7.09550362350918    9.98461828626432   13.41171290372751
C         7.37756866600922    8.64310761328657   12.92867994604414
C         6.20314657132623    7.85487791982181   13.20613152266728
C         5.19331636846224    8.65492382131871   13.76855397321879
C         5.70423594621037    9.99439921660106   13.84165764756849
C         3.80957579242872   11.81458960840372   13.98695392112787
C         6.05024818774772   13.54867152209414   12.74220094319651
C         8.74714700869144   11.88503996021891   12.65504642615773
C         8.75894772242130    8.06156528311670   12.76159672122164
C         6.10931619997434    6.35782750684534   13.06694093520242
C         3.85512594962137    8.17688572096114   14.24868974332387
C         6.87466720727003   10.96694255131420    9.52806578235745
C         5.54591883828790   10.54618626706812    9.23578819202807
C         5.51923407662760    9.12295974357231    9.27704370448517
C         6.82889246570790    8.66862781179177    9.60182520890019
C         7.67655176857020    9.80675630135358    9.74016336925052
C         7.35193560274756   12.38442800859751    9.35655533382283
C         4.43546624753429   11.48900541408272    8.85905130197659
C         4.37900797374809    8.20168838871227    8.93950464943600
C         7.22858742031517    7.21828241611925    9.55114784562707
C         9.18065399151355    9.79012935964882    9.73523034376417
Zr        5.90365598516052    9.90562703488357   11.53134303266123
H         3.16836931277795   10.99852251088295   14.30951664794388
H         3.88260434391851   12.54119007279836   14.80077082248583
H         3.33303594602185   12.30883615638069   13.13783712786607
H         6.96163316747285   13.95739084116597   12.31049945284309
H         5.85274762443237   14.07864784866853   13.67591230110909
H         5.21369807471522   13.75616035387432   12.06886208506539
H         9.49840025199444   11.10163202768652   12.57690786409974
H         9.00277913014007   12.49359982429594   13.52783753209339
H         8.81388337360674   12.52931976345545   11.77850163480089
H         8.78046628843520    7.25730201706581   12.02692520182777
H         9.10838289247567    7.64571472973399   13.71161923347008
H         9.46777722593951    8.83045085720588   12.46109402017608
H         5.22260136845374    6.07143071501992   12.49616798673237
H         6.03283763415480    5.89185857526016   14.05145839958063
H         6.99050952594041    5.95037136412450   12.57591997121369
H         3.58702616216141    8.68579948773514   15.17397201550553
H         3.87479473325661    7.10507837726589   14.43999422827713
H         3.07195495487422    8.37812508385965   13.51327328931780
H         8.42426075027917   12.45874690581351    9.52179876076349
H         6.83753305697459   13.07167354617840   10.03284869219339
H         7.15079521284796   12.71811050859174    8.33575861473970
H         3.47857282357260   10.97285208851636    8.82096351573698
H         4.35280688473986   12.30370781507052    9.58598960288769
H         4.62719218232964   11.92998859565200    7.87728422194255
H         4.22168355172422    7.46423369688929    9.73307905598765
H         3.45263363446034    8.75602584228363    8.80789711981144
H         4.59135299195934    7.66245224007544    8.01271867748637
H         8.28061474236508    7.08635273095675    9.79314964357743
H         6.62805331176455    6.61352992309384   10.23554584768537
H         7.07060839986780    6.82742064324693    8.54302414789901
H         9.56862125139462    8.83534287231059   10.07974462779267
H         9.59913555468331   10.57820663706636   10.35682283197699
H         9.54159852088839    9.94496451365861    8.71494272576689

