110
CSD_code = MOPWUL | q = 0 | S = 0 | Stoichiometry = C48H52BN6OOsP | MND = 6
Os        1.12417853069514    5.44869706489490    5.18601509485563
P         2.83555757029448    6.37070058516349    6.63059410102835
O         1.93394426421102    2.56797427279302    5.45888069060628
N        -0.36976462423389    5.10417686283366    6.87039095367211
N        -1.60281855457423    5.59644433541053    6.71125025218975
N         0.14657800431884    7.33611678819857    4.93765900550123
N        -1.17882736897905    7.46375566492817    5.07135363776582
N        -0.53283182135168    4.75605713356162    4.07968828061863
N        -1.77565443455590    5.22410534324033    4.26825631227810
B        -2.06700108548595    6.24692372137380    5.38903011375847
C         1.95631479129323    5.77662694032436    3.30817225384254
H         1.57044783937441    6.70292688817003    2.86187685745705
C         2.57727941648831    5.00415805855275    2.40473866404223
C         2.67209169007766    5.39652229709010    0.98342327692356
C         1.60602086379544    6.01281095685712    0.33037246821945
H         0.68428023173606    6.18812498864138    0.86725791655715
C         1.70493369534098    6.37470658807022   -0.99983735729355
H         0.86551173366390    6.84579238655331   -1.49223969147452
C         2.87014327649498    6.12697575790602   -1.70591946755409
H         2.94603519737247    6.40861986223001   -2.74624019222044
C         3.93430078434713    5.50775700914144   -1.07103587387093
H         4.84560432575712    5.30767841411082   -1.61694700476386
C         3.83556301056577    5.14240129402524    0.25773465443846
H         4.66882605492720    4.65984288791772    0.74868052021127
C         3.23801641535103    3.72040759840172    2.71910730259127
C         4.27486246969592    3.66002510174888    3.64278889349086
H         4.58637697958592    4.57561237847279    4.12088270981095
C         4.90793010429141    2.46195550412760    3.91846685909859
H         5.71560801645862    2.42923042608356    4.63672266740227
C         4.51196708329845    1.30379594316023    3.27212445252075
H         5.00021281992872    0.36534863554098    3.49124519380029
C         3.49451094013354    1.35559805072412    2.33399060622517
H         3.18985542021997    0.45575477466252    1.81853135689698
C         2.87031434746587    2.55559736078532    2.05066160490136
H         2.08916796155139    2.59487302848017    1.30321078143390
C        -3.60367916924442    6.67319895629802    5.55240697926234
H        -3.77376854768496    7.61524897738286    6.06798522891226
C        -4.64871527579086    5.97235792100349    5.25238977089535
C        -5.69821461502292    5.22851450935904    4.98028392082527
C        -6.14480009742696    4.25068176618796    5.99403042360800
C        -5.21397633123814    3.44726052189997    6.64657971541574
H        -4.17004824925169    3.52112475151068    6.37635763067910
C        -5.62115772508632    2.55415387202802    7.62015546123867
H        -4.88945885534964    1.93484894473048    8.11849617801353
C        -6.96173203392809    2.45018707931643    7.95185192286981
H        -7.28019268101840    1.75101219712452    8.71106577958560
C        -7.89384292759155    3.24523838995085    7.30516217997556
H        -8.94059479987424    3.16854056807507    7.56207518099547
C        -7.49038025469639    4.14168376449532    6.33310903409827
H        -8.21781773178453    4.76917472104682    5.83752980704836
C        -6.41740633843326    5.34217364743597    3.70485667282301
C        -7.17545443598756    4.28081112646274    3.21396291120065
H        -7.23916980698102    3.36226955054672    3.77951003694779
C        -7.83346930703066    4.39132358793302    2.00349337160774
H        -8.41878580752195    3.56074854976984    1.63589444454800
C        -7.74216498007423    5.55635100261289    1.26042932082799
H        -8.25975862904645    5.64044923785399    0.31630132098211
C        -6.97942272447896    6.61214473174065    1.73313500302103
H        -6.90004849941108    7.52233389161533    1.15620761211743
C        -6.32229053343620    6.50700547452726    2.94308398828854
H        -5.72992398553491    7.33124036675423    3.31539049224374
C        -0.36259140604585    4.42581670608002    8.00760686133982
H         0.51121539422222    3.90425576247711    8.34594617073301
C        -1.61399767006477    4.49159075171873    8.61811115689449
H        -1.91651443752419    4.05050897747952    9.54514962054189
C        -2.37440143494990    5.24759876538451    7.75496290791371
H        -3.40025000149215    5.54731335716421    7.81999361655372
C         0.61023021816829    8.49289861904968    4.48156513669170
H         1.65358983708550    8.63360189356683    4.27708944326470
C        -0.43684679083866    9.39870049882705    4.31823382426159
H        -0.38050453586714   10.40954099365596    3.97048190440492
C        -1.55863146260694    8.69692833443387    4.70077944692994
H        -2.58494815915467    9.00129556447036    4.71643341355359
C        -0.57651947800752    3.87837007443032    3.08650072593371
H         0.30858839022874    3.36491041758991    2.76605113368501
C        -1.87982233320542    3.78075679947259    2.60425647581235
H        -2.23885686143307    3.16530709257286    1.80583357430792
C        -2.60730977163182    4.65516351179160    3.38189182526754
H        -3.64712568398268    4.90350485850841    3.34966935134177
C         2.39138869868637    7.78117945672899    7.80131806522434
H         3.19430800709116    7.79404232527869    8.54550134423043
C         1.06518204353984    7.48407989914519    8.49571055263770
H         0.88224671490311    8.21391425525196    9.28443597073953
H         1.04725589808047    6.49039566764513    8.93599933752976
H         0.24620992501813    7.55097820470803    7.78272008587029
C         2.31261350184200    9.17364354558915    7.18237496578849
H         1.45744824254164    9.25998106028446    6.51924128340530
H         3.20795692110938    9.43146858473945    6.62614143426036
H         2.19162939167421    9.90843448659573    7.97907464545676
C         4.50321886208856    6.89484797936333    5.92868078992785
H         4.94789772170085    5.93408703607325    5.64987531569169
C         5.46864745824498    7.59224592620333    6.88417986886508
H         6.40550542519191    7.78025985346576    6.36023184635825
H         5.69373743112245    6.97438270181838    7.74803891448846
H         5.08730695726322    8.54801105297048    7.23113618070772
C         4.34778157634835    7.68623250434807    4.63251225431456
H         4.00489420005204    8.70164733492241    4.81314768099523
H         3.64143107157564    7.17589090963936    3.97836895945702
H         5.30669742866182    7.74701862387812    4.11938554030215
C         3.33631728923614    5.04829663695173    7.89695371641868
H         2.40663292009977    4.48062340380056    8.00612866934879
C         3.78035788457568    5.47058898294012    9.29830472427074
H         4.01342822904353    4.56993933775303    9.86612894396917
H         3.00385103753812    6.00297762212049    9.83939524640088
H         4.67707037375044    6.08371265342381    9.28120209555214
C         4.36636065925748    4.08628232352789    7.30713105110197
H         5.36489720800064    4.51734515938760    7.32048781200178
H         4.10139200053379    3.81818988281207    6.28782826863446
H         4.39171380614644    3.17189903919039    7.89805224391655
C         1.74575569476035    3.70276755972973    5.33212331842279

