34
CSD_code = MOPYOH | q = 0 | S = 0 | Stoichiometry = C13H14N3O3Re | MND = 8
Re       -0.60140603985616    9.93930155393919    2.41923123918334
N         2.39686989580180   11.58277639021043    3.17441160195315
N         3.55800165675386   13.54020708315486    2.90733416725630
N         4.32854823263873   11.79133205982915    1.73997732281243
O        -2.88470378684158    9.05084076026828    4.30139029903822
O        -0.99093483836665   12.97802574729242    2.81891754771242
O        -2.30309655019293    9.72120969394967   -0.15041929389123
C        -2.06796943041982    9.40936908538550    3.57910148404923
C        -0.92249798011775   11.84403962477472    2.66375854285194
C        -1.70848266100995    9.82340665672660    0.82680923549538
C         1.85401422064882   10.38472185983146    2.82745875704563
C         1.60040128956935    9.85007110638078    1.52176375229996
H         1.98914117946101   10.26547217144702    0.60263833879328
C         1.06665402386521    8.53376543503815    1.67131384505866
H         0.98828016076345    7.79927302247932    0.88096892573672
C         0.87952208206009    8.29267687524148    3.05431667284514
H         0.64305223333288    7.33918645119195    3.50606834283603
C         1.29226806090615    9.46228985647645    3.76390388639534
H         1.43205695566736    9.52748830774929    4.83254365809751
C         3.34936055680538   12.22366765066826    2.61666213504659
C         4.56316795040129   14.10107464143238    2.03538732285111
H         5.21747999343217   14.78246697920764    2.58556134428447
H         4.09600167573581   14.65763141670849    1.20966085401623
C         5.29338598300905   12.85607385569640    1.52962712510908
H         5.56329170312986   12.92102567570723    0.47235696910134
H         6.20736592067907   12.66547973408442    2.11069640890279
C         4.84855331777601   10.44821969795395    1.74779251399380
H         4.07850763350764    9.75292924630768    2.07122539823666
H         5.70777831079454   10.35771396148413    2.42500532865378
H         5.16941651677507   10.17918151060396    0.73927679073196
C         2.51899983983987   14.37547736241613    3.44323098552131
H         1.97424609621136   14.90018284803100    2.65064678346625
H         2.95647971475121   15.10969183942348    4.12069951801275
H         1.82634608248732   13.73882983890796    3.98828219650297

