31
CSD_code = MOQFEF | q = 0 | S = 0 | Stoichiometry = C8H19AuClOP | MND = 2
C         1.78731466250091   10.77477282359997    9.83574550972386
C         1.66558398203524   12.22591865543438    9.35878733002839
H         1.02796263767793   12.29176012454134    8.47651222322361
H         2.64434508244379   12.63326620899683    9.11034735371126
H         1.22885127892339   12.84261646680478   10.14214087106741
C         0.40006106914314   10.22214062548349   10.14359212014146
H         0.46028917815983    9.24878285966910   10.62588835169725
H        -0.18217672785157   10.12618280987099    9.22632687858851
H        -0.13006906591319   10.89641005606137   10.81406540077469
C         2.70147041398916   10.71827767772796   11.05517350415775
H         2.70466763252289    9.73418619660068   11.51318201215192
H         2.34895480459911   11.43234455332394   11.79776863858990
H         3.72032664796579   10.98512875609908   10.78528472814568
C         2.68831864254666    8.04377425430381    8.53812283524907
C         1.33618584033137    7.36353303438674    8.35858078310850
H         0.86007920408550    7.70496991205485    7.43933121457973
H         0.66769458022126    7.57346380116136    9.18898294398406
H         1.46843614147553    6.28476916409830    8.29471334655820
C         3.34775337541630    7.64482868964473    9.85244559744699
H         4.20627197870475    8.28064215736028   10.06231599745536
H         3.69406982634033    6.61412714546773    9.79039095263546
H         2.64593597729920    7.71062794965592   10.67998985802683
C         3.59649684901754    7.66426288163280    7.36271302875247
H         4.61805158347510    8.00613095942373    7.52541686732934
H         3.21874798777229    8.09299255449048    6.43098126450965
H         3.62233654648318    6.58252892984122    7.24534544052809
Au        1.37980692957067   10.37318011594615    6.41939617579114
Cl        0.31818247617459   10.82503932375747    4.46826701961650
O         3.97145370846135   10.45518520389323    8.40856341304922
H         4.43179325841053   10.39920791043049    7.56686137839143
P         2.46430349808926    9.89904819840999    8.33176696097691

