53
CSD_code = MOQFOP | q = 1 | S = 0 | Stoichiometry = C20H26AuNO4P(1+) | MND = 2
Au        1.20228043795913    3.63208737565767    0.88194004985055
P         2.75510487293023    5.09708218209082    1.56922267124124
O         3.34378562551937    4.83405641582559    3.03274707469309
H         2.67856028554891    4.75605770608763    3.72347124734462
O        -1.80473938068767    1.77916660834792   -2.64522842170630
O        -4.51788155968974   -2.15955303429933   -1.93467981689541
O        -1.78023261412659   -0.38636077268444    1.48691925634507
N        -0.15995516265011    2.35041188880090    0.25917853325744
C        -0.91929387143820    1.57450573009667   -0.13375195159594
C        -1.82949737008205    0.65396872385802   -0.60456330268170
C        -2.30135244216155    0.75062639993797   -1.93804421211786
C        -3.20736310637548   -0.18282540820061   -2.41054063877477
H        -3.56920374091347   -0.11744111562575   -3.42163189715604
C        -3.65031762501230   -1.21009262908676   -1.57301696143868
C        -3.18987319804163   -1.30532972880354   -0.25235348106122
H        -3.56970168324627   -2.11709933159934    0.34335419307492
C        -2.28696700184817   -0.39064751103926    0.24448574623349
C        -2.21870040601136    1.96437932337469   -3.98525218030379
H        -1.94242512442278    1.11057410325299   -4.60934490121846
H        -1.68929860417229    2.84979595578901   -4.33124227306833
H        -3.29581468084714    2.13878137054532   -4.04881677119692
C        -5.04931135081375   -2.17663448163617   -3.24437021985319
H        -5.62618258872594   -1.27169955389246   -3.45287236828589
H        -5.71072162771499   -3.04000102193461   -3.27758580378421
H        -4.26152340924234   -2.29648195801169   -3.99296529300944
C        -2.18622338174143   -1.39540557982218    2.39306231805894
H        -3.26282477905476   -1.35372243534400    2.57565395559372
H        -1.65243635963301   -1.18650944292052    3.31783114723101
H        -1.91135358407914   -2.38834595785845    2.02937622328380
C         4.27751856772217    5.09572883703632    0.60882322267555
C         5.51962072287864    5.30849287673767    1.19644667193528
H         5.59477042169527    5.45543461370104    2.26272555337065
C         6.65362337401597    5.31973525720609    0.40439879291367
H         7.61998609830408    5.48351534721473    0.85619439952499
C         6.55209758707906    5.12390245306565   -0.96387028907686
H         7.44057359881103    5.13735610785880   -1.57615858104149
C         5.31432291427161    4.90234789133289   -1.54795784910686
H         5.23842711885289    4.74048865592337   -2.61242149062133
C         4.17696361699316    4.88214007545751   -0.76273165151143
H         3.20552687223859    4.69400743765736   -1.20312417443571
C         2.15980123600911    6.86765395352949    1.59359501465123
C         1.67697876978849    7.20314190533103    0.18761726269674
H         1.26571871941128    8.20996294152629    0.16332793700174
H         0.89886168338574    6.50797001069246   -0.12918890737903
H         2.49936488774840    7.15430405080334   -0.52427999678919
C         3.29296150697988    7.79255342762762    2.02184562959452
H         4.09537021667411    7.78879272525308    1.28630045440476
H         3.70446427136607    7.49033886100555    2.98383429434474
H         2.92236692903337    8.81098753381844    2.11735413199389
C         0.99774486627537    6.92332209306961    2.58514584195209
H         0.50011733764828    7.88885933923056    2.52231978107287
H         1.34492155255461    6.79738656178308    3.61030098886548
H         0.26056056104866    6.14863322221923    2.36262104091207

