34
CSD_code = MOQHIL | q = 0 | S = 0 | Stoichiometry = C11H16NO5V | MND = 6
C        -1.96818037982242    7.80106755149696    4.42635876151429
C        -3.16308135252079    8.11360947502972    5.10889443962723
C        -3.17424246229707    9.02451973159643    6.13759950319163
C        -2.00632410013616    9.68317757913523    6.52202866866820
C        -0.83144929028221    9.42002712562436    5.85920720788068
C        -0.78285787678429    8.48772272655041    4.81425147915110
C         0.42719845390268    8.26902649678482    4.08201322244529
C         1.75127423550272    7.27774804278787    2.39631783336016
C         1.75989745801244    5.81355268445543    1.92105960612963
C        -2.36443921717607    3.65522073726524    1.71128017634657
C        -2.42463241796380    7.56799236717297    0.11039753987581
N         0.54511434039340    7.39745220984263    3.15941640701313
O        -1.96450483868388    6.93764452212222    3.46829721074778
O         0.47187743332547    5.49241815300319    1.57539794118465
O        -1.87227601488879    4.90649991418491    1.94017496103103
O        -1.13356904371654    7.60155770334901    0.67718777348459
O        -0.27345359397925    5.05116593656402    3.98843314365883
V        -0.80376994206259    5.81458474676235    2.77074913233840
H        -4.06456646534453    7.59905005284476    4.80815305140348
H        -4.09983867506050    9.23593432198440    6.65312197694663
H        -2.03022776010765   10.39747563636383    7.33031562024072
H         0.07875896538766    9.93081269105678    6.14154328551675
H         1.27116257631012    8.92940932416826    4.32431885393020
H         2.64946239891564    7.53918757104652    2.97234709885274
H         1.67133574046836    7.93504752596634    1.51966573434361
H         2.43749962919014    5.67985612964921    1.06123055881611
H         2.08581974478182    5.16704494994597    2.75653790959808
H        -1.64163141548217    3.09647107330195    1.09393176341060
H        -3.32701068265143    3.70015420381949    1.17825887574808
H        -2.49497059063650    3.12192071606131    2.66611148264133
H        -2.91545306472900    8.50209355025649    0.38410971074441
H        -3.01489785115692    6.73066527058681    0.49766504871914
H        -2.37272804372932    7.50085652436131   -0.98344562546145
H        -0.67109589697449    6.77833275486411    0.44706964690047

