55
CSD_code = MOQJAF | q = 0 | S = 0 | Stoichiometry = C19H30NO4V | MND = 5
C         2.30168482983195    1.02002527928427    9.95149176222648
C         3.01808176775551   -0.02975106411762   10.58048867523451
C         3.68575240277931    0.24983007826429   11.75693082749252
C         3.68416771416311    1.50627363109808   12.37240740607052
C         2.94047085271493    2.50404170265737   11.77955920547257
C         2.24081913868165    2.28137382265677   10.58994793643934
C         1.43245093958586    3.34291673737386   10.04003361553938
C        -0.11000185643906    4.32045795720673    8.57334888085365
C         0.15514142153606    4.56821676293405    7.08439169639067
C        -0.32942213945156    3.38840577175752    6.22631085292794
C         2.98469849667474   -1.42743775173167    9.97101442036005
C         1.52811728721239   -1.91995643665330    9.97750729322199
C         3.82866571299225   -2.43455838791113   10.76145354218391
C         3.52255092947979   -1.39252956154286    8.53276827765926
C         4.47445225398785    1.70387178076746   13.65740125910302
C         3.93821073310750    0.74780122829297   14.73194555755859
C         4.36725831900332    3.13329184239739   14.19531587841795
C         5.95582522094715    1.40548261844268   13.38693197233559
C        -0.18816850175075   -1.39773952435978    6.51500293181654
N         0.67399768274150    3.21309936603926    9.03255671809270
O         1.70547353521980    0.85308366083596    8.80424276307190
O         0.30824194456397    2.22309057939729    6.55900193451087
O         0.56395595805438   -0.29513563344800    6.83228581468540
O        -0.90803661213639    0.92916413206284    8.47863801378213
V         0.42761460172606    1.08768357574494    7.75066869554392
H         4.23913988704480   -0.54057931673396   12.23415662805579
H         2.86915121417626    3.48520868562193   12.22179769307473
H         1.48481136419575    4.30622750119351   10.57843139866136
H         0.10307956879298    5.23807942020398    9.15297473240209
H        -1.16444242043215    4.04972035189912    8.70682825715811
H        -0.36215843511218    5.47556532734073    6.76764226083369
H         1.23007947296312    4.69956139338978    6.93012588264924
H        -1.41638690289196    3.25526546697968    6.37475802362635
H        -0.14467453337191    3.61923091066585    5.16146851589947
H         0.87725780645660   -1.24735426970376    9.41492347583086
H         1.15905754281287   -1.97673181486780   11.00036233748361
H         1.47062585747467   -2.91286822732835    9.53449120627254
H         3.46496148446315   -2.54124200129537   11.78073328505623
H         4.87606029515393   -2.14128644502371   10.78125610327800
H         3.76311792596994   -3.40945441540514   10.28265896406520
H         3.57915637557874   -2.40453822677748    8.13493593237575
H         4.52174776105417   -0.95943827965349    8.51445845213884
H         2.87396651818329   -0.80647423789180    7.88240339814427
H         2.87923386488966    0.92998702441266   14.90094182882274
H         4.46972802804938    0.90125076959359   15.66876972820550
H         4.06213466252332   -0.29046714250816   14.43790708766003
H         4.74872082557679    3.85187473310136   13.47376876496049
H         4.95827255318844    3.22408630515516   15.10444401211007
H         3.33728611148002    3.38257119932949   14.43878765008040
H         6.10119721335281    0.38007874986700   13.05932394051152
H         6.54038720422188    1.55955224334112   14.29149183742874
H         6.33667745409203    2.06785982930914   12.61252659818405
H         0.39187581769548   -2.31695306936376    6.68705387685443
H        -0.48344696673032   -1.36207729344162    5.45503373993986
H        -1.09582018383646   -1.41545733886045    7.14139845724609

