52
CSD_code = MOQJEJ | q = 0 | S = 0 | Stoichiometry = C17H27ClN3O2PRu | MND = 6
N        -1.10361706240946    3.19736704957767    5.45956622914100
O         1.31773089666067    5.36411198645193    6.96101303320429
N        -2.67295593065153    1.82141957688074    4.50727794040465
H        -3.49338424396650    1.23884549510595    4.62475791322535
N         1.09696124844609    4.37937725964915    4.95656769022172
O         2.03966698054232    2.81030196071916    1.62401817765301
C        -2.25880354648934    2.53625287180600    5.60218391129657
C        -1.10705766173592   -0.64711779984629    4.92286143022681
H        -2.06100918538876   -0.58856094611216    5.44708416904398
H        -0.40293517198881    0.04664488103531    5.37837348417045
H        -0.70944714934617   -1.65098606969349    5.06258853032486
C        -0.63776096104241    3.94298842016148    6.48305294329891
C        -1.26182621198779   -0.36761603169502    3.42540603860191
C         1.26603271361894    2.88384766938701    2.47210586650395
C         0.61188550518447    4.56735515636206    6.13791319280618
C        -4.07708623001698    1.22763322782331    1.81451842382628
H        -4.62011470800917    1.60839638293245    2.67718260210538
H        -4.07349930860260    0.14579667793224    1.84460133430673
H        -4.62914613949441    1.52644986848610    0.92372191550737
C        -2.67650344695703    1.83717069219958    1.74269250273854
C         2.35928578953382    5.07548840250480    4.86021002530543
H         2.32652739870021    5.79086804245174    4.03279146683921
H         3.15792209105585    4.35229991993138    4.66425666774761
C        -2.32824250666280   -1.31615622371681    2.88159958412895
H        -2.43141075612246   -1.24584659052744    1.80276423278944
H        -3.29414200095693   -1.15049224333846    3.35521081651205
H        -2.02375770615183   -2.33709727740404    3.11308442432695
C         0.07011037932825   -0.62599970915792    2.71997507333001
H         0.01449242241915   -0.37536342838940    1.66238009057580
H         0.34829398673721   -1.67467786179062    2.81277649943468
H         0.85431926134029   -0.02463620982315    3.17772135507943
C        -1.91685380950561    1.37013847654722    0.50324256372384
H        -0.88815516431650    1.73222476096112    0.55479358602745
H        -2.37891226602907    1.77573964966712   -0.39554689563668
H        -1.90578535258300    0.28677933225577    0.41540352759358
C        -1.31375486851940    4.05914472658671    7.69415981816313
H        -0.89445412106171    4.66135541814069    8.48232258558181
C        -2.85445520055845    3.35395913627694    1.65832455134849
H        -3.22108813750729    3.75481112862165    2.60223137177823
H        -3.57256301237609    3.59843770162093    0.87707650374034
H        -1.90982914653151    3.83635487329517    1.42437979744470
C        -2.99121133446812    2.60879118387934    6.78730243250501
H        -3.91753796980060    2.06320162546308    6.88005584778281
C        -2.50861930240508    3.37651212803380    7.83800741030899
H        -3.06283735236419    3.43326614337675    8.76168356558884
C         2.49366977745780    5.75102922743892    6.24481196070484
H         3.36567726165490    5.40164971373696    6.80343035988854
H         2.51357641568539    6.84245803111049    6.18591673000229
H        -0.66213816333054    4.14331102167540    3.16445794130434
Ru        0.06992446249019    3.01696830088928    3.87573274882660
P        -1.56404073762605    1.50786956588380    3.24298024860953
Cl        1.39595927610803    1.53713270463457    5.19597578003290

