98
CSD_code = MOQKIN | q = 0 | S = 0 | Stoichiometry = C43H51ClN2Pd | MND = 5
Pd       18.43533466759709    7.58999961427578    0.26544119218760
Cl       18.97235009593579    9.14411088142621    1.91538787509354
N        20.44927616006157    9.40764368354833   -1.05470155540038
N        21.21725153234823    7.41018469517665   -0.87117852586787
C        20.11598597492994    8.16080760402184   -0.67564356507351
C        17.60482984512522    6.14063814772698   -0.97542072337688
H        16.96218338268640    6.68162687274233   -1.66713848094678
H        18.15190856052581    5.32191743762995   -1.43603908940792
C        17.15799108049777    5.92371220964792    0.35494458637190
C        16.52706854916941    7.00167899037164    1.01119030405594
C        19.54688940527193   10.50818767490576   -1.04506840984072
C        18.43645102899055   10.46574314204068   -1.90244107259601
C        17.55714636149374   11.53832275977191   -1.88146936577152
H        16.69683123445830   11.54033689791619   -2.52999711620322
C        17.77041184569455   12.61337831492656   -1.03871294372036
H        17.07001119354232   13.43599582086403   -1.02964939435420
C        18.88394905794762   12.64938717152682   -0.22563074639624
H        19.04810785239739   13.50441138975159    0.41051593192501
C        19.79649688265707   11.60170191292226   -0.21175179472330
C        21.24967301117559    5.99366729912969   -0.73370400829061
C        21.24251269882942    5.22078524305481   -1.89905769856295
C        21.27888128196832    3.83782769337175   -1.76982475681858
H        21.27261163091363    3.21757451491885   -2.65274938719336
C        21.32529371779842    3.24670266103495   -0.52397131500198
H        21.35790374589176    2.17055604728651   -0.43876593474951
C        21.33070406609380    4.02603412601029    0.61836336638848
H        21.37299079645303    3.54050943026495    1.57941419019265
C        21.28417302213996    5.41281707058479    0.54282635710066
C        21.03503658932260   11.70131643967762    0.64756282686706
H        21.53370832593015   10.72884061506653    0.67042505518873
C        18.27972733331666    9.34503461002586   -2.91172854787496
H        18.57968841731241    8.39987658766445   -2.43791228706666
C        21.30503427424688    6.27905770800556    1.78445706240362
H        20.52632178159263    7.05588585266600    1.67442072186390
C        21.20637940529067    5.84078913184633   -3.27880827484481
H        21.14908080659107    6.92907209050813   -3.19047915457641
C        22.66396139189315    6.97611258771126    1.91980412100281
H        23.45764286316012    6.23630977169572    2.01767907778068
H        22.66204901678001    7.60537625109287    2.80608315975141
H        22.88346149536119    7.60631757461477    1.06272205202186
C        21.01339547072628    5.51854831792027    3.07809634449981
H        20.09970290242159    4.93329274350391    3.00202842899087
H        20.88847378867050    6.23608152299988    3.88583804602210
H        21.83681765769720    4.85647269408288    3.34141076694184
C        22.48680429598337    5.49873131977469   -4.04565833740163
H        22.56019724211547    4.42869082085886   -4.22163785438907
H        23.36557991859285    5.81228446642026   -3.48598289204618
H        22.49263916360021    6.00543663896863   -5.00815632083292
C        19.97145456526142    5.38704752528605   -4.05986077498532
H        19.96648109986661    5.85088192392105   -5.04395589867703
H        19.06526330817072    5.68199913699557   -3.53671019856956
H        19.95997473579837    4.30826262265706   -4.19136961708739
C        21.99082510022210   12.73726181429478    0.04452004881792
H        22.22823879954566   12.50524749105736   -0.99232868353207
H        22.91789318501185   12.76581571294837    0.61272665006396
H        21.54107659626697   13.72708320826375    0.07071189068177
C        20.70470605849112   12.06492683982022    2.09498452395254
H        20.27324763723068   13.05912976552360    2.17142652389917
H        21.61330611085071   12.04140531324857    2.69268941140762
H        20.00416903710793   11.33879128351457    2.49701604993332
C        19.21432764138045    9.61304958657499   -4.09807941497722
H        18.95096722327350   10.55477496942858   -4.57605342307957
H        19.12527753362810    8.81573652693260   -4.83305379489296
H        20.25299538809330    9.67226698465835   -3.77950493914618
C        16.84876043455078    9.15897330275004   -3.41191412446401
H        16.15941651245857    9.07988015381473   -2.57543721543729
H        16.78615607875541    8.24502865090110   -4.00041552734864
H        16.53910585725970    9.98374974697036   -4.04969925977672
C        22.23595197969225    8.18274655228588   -1.37674638381666
H        23.20030810805007    7.77852632271051   -1.60718055021269
C        21.75202974542001    9.44065313767088   -1.48473331984363
H        22.21809807208907   10.33735067511688   -1.83652416601770
C        17.58864012466661    4.65659262100392    1.04996565186051
H        17.23297551898220    3.80584985701084    0.46605013993311
H        17.17307048647583    4.58432297645333    2.05322897385958
H        18.67824780577660    4.58336365302804    1.10184616848661
C        15.65631424656329    7.93117970015606    0.23275140809117
C        15.82150812555230    9.31364429835236    0.33606571468447
H        16.61835319766684    9.71943727217734    0.95192732006083
C        14.95350983770927   10.17052078439956   -0.31887323162776
H        15.08547254621103   11.23774520997218   -0.22071979523284
C        13.92040564918554    9.66521229390543   -1.09080295193719
H        13.24212438213735   10.33525709005989   -1.59908958290386
C        13.75590977032981    8.29399235132735   -1.20772180772735
H        12.94978265012367    7.89424002121895   -1.80655868429257
C        14.61330682391231    7.43248974100130   -0.54845527901824
H        14.47178053071812    6.36213939152270   -0.62388728392990
C        14.99139569692238    7.21060071724475    2.97510352633128
H        14.17631500220402    7.42364600210578    2.29718647504128
C        14.76397833152042    7.17291823366002    4.33818967961120
H        13.76969307185748    7.35840578499645    4.71916639379270
C        15.80196217453089    6.90292567561963    5.21401106131968
H        15.62056099669021    6.87865543666080    6.27876482564165
C        17.07651344690119    6.67915789034423    4.71915184741353
H        17.89483310141145    6.48819717188469    5.39850951763061
C        17.30775063278313    6.71158394723891    3.35840040614121
H        18.31550763486521    6.58251188161887    2.97445260068023
C        16.26603658230930    6.96983369826463    2.46589718634523

