64
CSD_code = MOQKUY | q = 0 | S = 0 | Stoichiometry = C25H25BN9O3Re | MND = 7
Re       -0.31995678038924   11.69679592108788    1.53179268953681
O         3.43353428976710   12.61446868012207   -3.79305790799705
O         4.98072536428498    9.07370211882091   -1.42641243202573
O         0.79643673863044   13.48428562148447    3.76362042825587
N         4.47418260480233   10.89270754160098   -2.71198019359981
N        -0.02225427186063    9.85089181092472    2.73781245417605
N         0.86686117483271    8.34900080093592    4.06978513062668
N        -2.32297790602247   11.56768965030966    2.39689746388560
N        -3.40901736788603   11.57932411919856    1.62255550300816
N        -1.32348044957582   13.30991984592782    0.47031773644362
N        -2.52565817665583   13.11643705455725   -0.07824494491751
N        -1.22079153372665   10.41345932918864    0.02864618528991
N        -2.43983398033746   10.65782191281524   -0.45235382879890
C         1.66123111279201   11.12933156808739    0.75149063287245
C         1.25515653302147   12.16778275507633    0.08627679866783
C         2.16091164246302   12.68748907726752   -0.97902495016880
C         2.34173305030643   11.45821157033626   -1.93593934984501
C         2.85288143216592   10.24637836808118   -1.15680685136928
C         3.00094114640616   10.58897075232754    0.36501542290916
C         3.93344801830660   11.78511663952286    0.37301999533561
C         3.51067835826643   12.84095339759174   -0.30749586256077
C         3.43017125461857   11.76704718535722   -2.93822235775746
C         4.22068702814309    9.95634138110030   -1.73496734558181
C         5.71608756169482   10.94741018484132   -3.44526198012469
C         0.38931906622781   12.82423266819072    2.90272831060890
C         1.00436506386319    9.56219718502025    3.51095710709960
C        -0.31606376572633    7.83788430215669    3.62489178205149
C        -0.85806396473906    8.77917607042995    2.79986102664690
C         1.78791166350438    7.70255643306763    4.96104299409540
C        -4.50413993837285   11.41189180937132    2.37478345585450
C        -4.10834373759926   11.28180499044192    3.69038556157414
C        -2.72005011247084   11.39181313894800    3.64986416370067
C        -2.91805980553230   14.23243818448038   -0.70785455567120
C        -1.92900380240380   15.18214242574610   -0.56207613479289
C        -0.94286610730851   14.54957115424176    0.19115536993446
C        -2.76564889000640    9.73072099906531   -1.36631442721282
C        -1.71192137512228    8.84900195343468   -1.47687051723899
C        -0.76448466578292    9.32767799367539   -0.57116049457669
B        -3.29471033538808   11.80184402681126    0.10255907792915
H         1.84401700003859   13.56872835747676   -1.53462954731581
H         1.39612808834718   11.27292449567574   -2.44852563744560
H         2.21504979508663    9.36821339082543   -1.26982238763260
H         3.38786118401257    9.73232895949277    0.91734666136177
H         4.87959710999670   11.72128587523501    0.88152509411803
H         4.06466494855749   13.75559620785036   -0.42598097694762
H         5.52910148004369   11.44433926848849   -4.39575351034899
H         6.07740481315787    9.93237175471287   -3.60392122145240
H         6.46322268600260   11.50955887574861   -2.88226079442013
H         1.84228581583023   10.21255844911144    3.67054443820593
H        -0.67110631760190    6.87212141615950    3.91973047543507
H        -1.78387803497281    8.73239006714776    2.26079718705965
H         2.62801066645138    8.36698216618418    5.15178753098533
H         2.15928062227277    6.77634656433491    4.51852360392201
H         1.29800583868205    7.46594097772131    5.90708266685083
H        -5.48137003176932   11.39786527326787    1.93629492389382
H        -4.72917493273583   11.13540650117528    4.55002855343398
H        -2.01113489569406   11.36430716101638    4.45544565805591
H        -3.86160729127933   14.28037680079648   -1.21277849818010
H        -1.92110296307683   16.18217393593029   -0.94306469428567
H         0.00222523527754   14.92149674538413    0.53672185902870
H        -3.71053751950489    9.75626726831544   -1.87040622450066
H        -1.63632589861655    7.99084240072894   -2.11295882447109
H         0.20138484254949    8.92769171233633   -0.32857712865709
H        -4.35973837822681   11.83739475323595   -0.41196436294394

