119
CSD_code = MOQMOW | q = 0 | S = 0 | Stoichiometry = C50H62N4O2Pd | MND = 4
Pd       -0.31194783521856    3.99632188976571   13.96695638513618
O        -1.43956940510015    5.74446874480050   14.64915926271856
N         1.89141716068639    5.26862952700598   12.26943872859956
N         2.01045123223320    5.63303437304814   14.39264793733714
N        -1.93331284135107    2.78256055519604   14.64311762870917
C         0.44147066413057    2.23467795211367   13.40196277728385
O        -2.48013494644388    4.96340201493461   12.86022074800026
C         1.25833908837161    5.03020341838610   13.44165168397161
C         3.04052884230928    5.99351517248818   12.49590818621889
H         3.69379430571422    6.28726879036473   11.70072110288212
C        -1.90000522051323    1.82033356010774   13.72891585159263
N        -3.15267514510123    1.38037781959640   13.46030476414787
C        -0.61812493282231    1.31091333014831   13.27596715746370
C         3.11266257784140    6.22384998546129   13.82407865314165
H         3.84382796850566    6.74582601432585   14.40637196135879
C         1.60456639822835    5.87509564393856   15.74027361777668
C         1.67596029283710    4.86354868306738   16.70206864870207
C        -3.34369022646760    0.91289067537151   11.09178951675897
C        -2.43783356295799    5.67014913153586   13.87878805671107
C        -3.53761332093729    0.50505103520235   12.41654355279906
C         0.27505218367444    5.81597409515263   10.53697328073125
C        -3.64477506393965    6.54303709627481   14.23466931698743
H        -3.56278381221724    7.49259562756665   13.70928148233844
H        -3.66597013646111    6.73512410811057   15.30454473250965
H        -4.56041315219282    6.05050158554217   13.91816514607369
C         1.36948036438459    5.04343045121635   10.95969336522455
C         1.72034647926613    1.74133058413162   13.17131675110765
H         2.58541935107229    2.38534186776111   13.27459439399360
C        -0.20638466649367    5.61599309592604    9.25050847490158
H        -1.05283965788197    6.18318513781771    8.90171248260100
C         2.01747290391123    4.16432907924938   10.08730799138687
C        -3.74006376552333    0.04188730788112   10.08462893818244
H        -3.59777904222873    0.32524583203141    9.05342739428831
C        -4.00910470581095    2.11804726337846   14.23875860510849
H        -5.06935820881903    1.97701397444986   14.19406715223566
C         0.39321719408164    4.71230518623421    8.39395133739608
H         0.00196172155003    4.57264730319036    7.39700922805352
C        -4.11035562432056   -0.72928270145085   12.73522974319834
C        -3.23878840448886    2.97643448024684   14.96352690883573
H        -3.53970109139188    3.70527266620835   15.69107844353542
C         1.32823972013263    5.17102339781798   18.01201715671608
H         1.37732269464776    4.40342824831818   18.76870221089456
C         1.93685385424490    0.41349518065577   12.82781506610705
H         2.94713951982336    0.05346090000695   12.68893731938418
C         2.13252220011629    3.46347501165581   16.36817478958612
H         2.32066706793224    3.39648454164500   15.29284836701622
C         1.50945122022846    4.01280216908403    8.80260082282658
H         1.99549780126672    3.34179098640211    8.11273915214574
C         3.28502470644563    3.43246393053916   10.46095094865672
H         3.44146004378121    3.51925732621125   11.53916797615773
C         1.18597218253265    7.16917039803254   16.07720350811495
C        -4.28819388643683   -1.17120325471558   14.17016561655153
H        -3.87025189267355   -0.40784504361704   14.83379732764040
C        -2.72353816924153    2.24248001823409   10.73342528227245
H        -2.51616568322675    2.83000623150658   11.63220257614728
C         1.06348028535708    8.27994827287259   15.05982819515707
H         1.30189673770329    7.89368338480591   14.06666833396358
C         0.65043445147576    8.15994674320232   11.20865546262674
H         1.67566890722195    7.94228574079934   11.50080810351213
H         0.29097312233545    8.99084649919867   11.81120704938631
H         0.65352622413286    8.46906844117388   10.16431718942257
C        -0.26614496742275    6.94188719389915   11.38965292745867
H        -0.25440774912202    6.63059866124475   12.44025847818847
C         0.92402969813926    6.44300041330354   18.36176119607636
H         0.65919695509271    6.66567442462007   19.38505968239920
C        -4.50208939729905   -1.55961315910525   11.69405467511840
H        -4.95174238529033   -2.51608454391994   11.91241041154962
C         0.87272113820902   -0.45540376430039   12.65630749621862
H         1.04737635725667   -1.48116036385907   12.36473401105121
C         2.03968353186410    9.41820211035663   15.36839484594155
H         1.82190458675045    9.86646743958700   16.33444306063481
H         1.96211835038556   10.19149592660301   14.60700473359253
H         3.06561944946868    9.05523834745442   15.38559129855301
C        -1.70258901288813    7.33581256493358   11.05588077156884
H        -1.78034560875959    7.78872485633522   10.06942149376471
H        -2.04632546534198    8.06796243479973   11.78381030673789
H        -2.34953175016838    6.46521513576789   11.11762736947811
C         0.85266573829803    7.42986561046400   17.39920673233945
H         0.52674563507203    8.41950673330215   17.67938127909723
C        -0.41556903406988   -0.00801310423473   12.88178115008535
H        -1.25406674349650   -0.68130437902436   12.76989363543638
C         4.48181032903015    4.06715060920997    9.74324859489497
H         4.36761426898997    3.97978972525616    8.66532256534332
H         5.40145143632835    3.56432937229896   10.03430347977329
H         4.57645723723882    5.12320090633186    9.98529088978434
C        -0.37969938285623    8.78580655209979   15.01312223144929
H        -1.04679432893026    7.93906174246728   14.87243457859276
H        -0.50717610105825    9.48436352725091   14.18831697323090
H        -0.65197112281922    9.29368965605449   15.93460426709357
C         3.20328184695518    1.94619719468925   10.10954338035631
H         2.28129577370201    1.51710792176510   10.49151939667697
H         4.04362097049280    1.41550383289002   10.55122011691520
H         3.23969094303771    1.79317855428579    9.03427138470729
C        -4.31729983601221   -1.17796677010951   10.37904788735564
H        -4.62355673332719   -1.83698352796448    9.57987101473585
C         1.01861701412188    2.46760090664913   16.70465611412018
H         0.86866916797462    2.39239371917320   17.77901180924083
H         1.26730124683442    1.48144039083445   16.31779053555654
H         0.08299679229628    2.80556870671009   16.23880944073251
C         3.42966174557633    3.11845473310827   17.10333301401293
H         4.21764463795413    3.82259204728036   16.84295713075836
H         3.75506544103410    2.11802594924870   16.82743673399667
H         3.28939555226731    3.14779055026719   18.18099261796461
C        -3.67475565922296    3.07891954084985    9.87565008326817
H        -3.86262511247926    2.61154526105744    8.91122935809684
H        -3.23312633401527    4.05748878118978    9.70835010402649
H        -4.62524539807436    3.21578886944503   10.38668089066220
C        -1.39254346198338    2.02592201415618   10.00871715493341
H        -0.74466513470850    1.36830663721241   10.58396893659178
H        -0.88725226939791    2.97970836675373    9.88933763028756
H        -1.54702440415329    1.58442173941906    9.02595048783795
C        -5.77380788478850   -1.32846288232266   14.50256782909080
H        -6.30827582388465   -0.39938871909593   14.31616960829708
H        -5.89749619880518   -1.59275389551395   15.55046582467962
H        -6.22609856712497   -2.10875943182509   13.89546489707961
C        -3.53273105484259   -2.47573038679959   14.43552348344161
H        -3.92843423059884   -3.28897437355549   13.83252286164972
H        -3.62460637691700   -2.75106024627964   15.48389208328797
H        -2.47616338352139   -2.35764159251631   14.20426520997222

