88
CSD_code = MOQMEM | q = 0 | S = 0 | Stoichiometry = C37H45ClN4Pd | MND = 4
Pd        0.37902972265579    2.02338825403903    3.12799802609669
Cl       -1.71790513278260    1.00675636538148    3.27916821590448
N         0.39966287516927    3.66521432690776    5.63038561604117
C        -0.16448711874936    3.38630048351551    4.42929262527190
N         1.01674131725075    0.57922339196923    1.84302256321829
N        -1.27095862008611    4.15654347944933    4.35788369755402
C         2.95770051795905    1.95551075619493    1.84125988657223
C         2.19756587624499    2.78332792192925    2.70470004670646
C        -2.01952677550101    4.46878266282160    2.04461845395370
C        -3.58476292643561    3.73056940950817    3.76550676378582
C         2.28155994322348    0.72705321630492    1.46881198574677
C        -1.39245472488733    4.91570496558946    5.49678132404283
H        -2.19172088954810    5.61393750655309    5.63348971534094
C         1.59519094526977    3.07308337538614    6.12130134120680
N         2.66717855737855   -0.35564994216614    0.74235420063923
C         0.44384315744620    0.78017908289435    6.11998331082898
H        -0.38939138148512    1.32176631748080    5.65732811877288
C        -3.06448534760755    4.46386180925253    1.12854857479333
H        -2.87087377418379    4.73408734757660    0.10193499634673
C        -2.29395463207110    4.10878327211666    3.36776588727840
C        -4.59502869743995    3.74885505038420    2.81448218297856
H        -5.59400399261429    3.45757656158880    3.09836672397801
C         1.65534108452892    1.67819204229316    6.25668574583855
C        -0.34956860840906    4.60675185872651    6.29554178750778
H        -0.10716477115680    4.94854921431513    7.27904319198591
C         2.68782754047052    3.88088148241897    6.46899300642430
C         2.73236033593876    4.03454117742055    2.99170493298947
H         2.18473236847208    4.72470322992300    3.62185705791493
C        -3.92184077090941    3.26858814746903    5.16585078701029
H        -3.01245206189347    3.23128650900282    5.77076236958387
C         4.69432688610954    3.60639307356036    1.67126392859045
H         5.64881114239466    3.92538186199965    1.27739389978801
C         3.86169070587848    3.26182590541191    6.87709348011731
H         4.71465264241675    3.86513364266882    7.14354209064315
C         3.95147742707139    4.45039067868632    2.47622903497522
H         4.32158644154296    5.44488099666161    2.68817574064398
C         2.62928708347272    5.39332925550643    6.48092624337930
H         1.75402782338946    5.72751164297804    5.91589719887562
C         0.57149676346235   -0.60386362239774    1.36222335819573
H        -0.43122754580943   -0.94206725418091    1.54003615224564
C         1.58706253866306   -1.19587844408491    0.67353227353605
H         1.63403286743383   -2.12866402661329    0.14995379023745
C         2.85737031751720    1.10770963937903    6.66005161594897
H         2.92590937574717    0.03625571915473    6.76324995267179
C        -4.34408532434657    4.11657591886466    1.50798162771977
H        -5.14464454123826    4.11935852012133    0.78288214606329
C        -4.90524269330255    4.23266168703364    5.83637242280830
H        -4.51202180172822    5.24770270267388    5.86025052499645
H        -5.09777653815187    3.91492021407391    6.85892274915313
H        -5.85107376612316    4.25131083126336    5.30096317888919
C         4.19795624568105    2.35763944949384    1.35090877091824
H         4.77493057465234    1.72177426370439    0.69809583788108
C         3.95938664576393    1.88685924124863    6.94519838299045
H         4.88799664410401    1.42546959981496    7.24753166613765
C         3.94063539940256   -0.64159351857640    0.14380990020625
H         4.74049798391411   -0.54924410686969    0.88046836223454
H         4.13903567562738    0.03476440713539   -0.69129518872377
H         3.92763905482429   -1.66357288005095   -0.23333196041548
C        -4.49106645525655    1.84828295765200    5.13795049590153
H        -5.45758449166711    1.81702762122909    4.64276069124811
H        -4.61353428750734    1.47984677767586    6.15449442150408
H        -3.80331540841321    1.19670890713388    4.60434268320439
C         3.86592370806594    6.03378131445284    5.84483585317854
H         4.72438588644177    5.97976443605835    6.50937029265675
H         3.67121116083866    7.08414085781264    5.63777528390807
H         4.11937645769469    5.53345014695599    4.91598355060790
C         2.49650497264199    5.88440030267818    7.92802091532795
H         3.38186275393354    5.61163296617778    8.49783052576141
H         1.63584189112828    5.44362565244166    8.42600100607355
H         2.39188427739840    6.96707024626521    7.94878679646996
C        -0.63718491007585    4.85256243289161    1.56627344053082
H         0.07023696845780    4.80004781178463    2.40185744329550
C         0.73778443739327   -0.43431762171301    5.23272875967224
H         1.26379402894503   -0.10613217232883    4.32617340828340
H        -0.20067352902290   -0.90233759497540    4.94161010526470
H         1.35018232612798   -1.17243043531832    5.74731431749253
C        -0.17073173980603    3.85010879207185    0.50214326959796
H        -0.31256380279918    2.82432556679402    0.87893222037517
H         0.88377442937276    4.00705322461407    0.27618785883489
H        -0.74417551103133    3.95867355661803   -0.41586900107200
C        -0.01102727207867    0.34097269394110    7.51540722005367
H         0.77432180030468   -0.21366682412412    8.02510893648198
H        -0.88850376408315   -0.29516248409063    7.43060628241025
H        -0.26890801737877    1.20541365977315    8.12484180850342
C        -0.61375782746609    6.28303539514605    1.02330821817305
H        -1.26349630254210    6.38688406878073    0.15792093710874
H         0.39851891849820    6.54701840914424    0.72489117114000
H        -0.94487274280156    6.98700465977896    1.78446077102646

