55
CSD_code = MOQPUD | q = 0 | S = 0 | Stoichiometry = C19H23BMoN6O5 | MND = 8
Mo       13.98571905214964    3.10978706977222   11.58691013404326
O        13.37677791012895    0.55950395638843   13.74461079677213
O        15.21368085853507    0.75011147962080   15.19798409078145
O        12.50501961483295    1.68582639517562   15.59238124895466
O        15.89355531895081    0.73368319117751   11.14821878486061
O        11.86483486028455    0.91120813311490   11.25000825937938
N        14.29230511892415    3.10986160202678    9.46113165102821
N        14.46417310588928    4.21731726597304    8.73918868324018
N        15.51358195178861    4.67272550105442   11.46305110235393
N        15.45581640791955    5.59789196851173   10.50241605029326
N        12.64553975389964    4.55969803893802   10.87521166259492
N        12.99945041105997    5.59019558775858   10.10842696189397
B        14.37163408884988    5.58391039024260    9.42771053693474
C        14.40855993001346    2.07305103892645    8.64399364593555
C        14.66433740357797    2.52231665655239    7.34993727349806
C        14.69009338875257    3.89755379576185    7.45853317757683
C        16.64480604998467    4.87340031965817   12.12562319447000
C        17.33490390601138    5.95924975285915   11.58951021891722
C        16.53809562186239    6.38931262655351   10.55256424977319
C        11.36634050306725    4.71944005100570   11.19360348768426
C        10.88266688196504    5.89633307071372   10.62889263918016
C        11.95961880926819    6.41506470806158    9.93767251332741
C        14.76772052616290    0.69893132273621   13.87543193515364
C        15.28512462639094    1.97493881798760   13.19916583151807
C        14.51971168560710    3.17261552582651   13.65810516119114
C        13.12940683183701    2.99927639691289   13.74004073981497
C        12.59636153935327    1.64903889204133   14.19230758795900
C        15.16048495062451   -0.48576898197721   15.87707127720209
C        12.32802357152559    4.15174942535021   14.30605969619910
C        11.65644928996279    0.70026241049221   16.13556863303958
C        15.27349718916752    1.63371375607921   11.60234013806728
C        12.64377366237128    1.73687037265940   11.41309234643409
H        14.49292079758157    6.48139642203711    8.66911792626717
H        14.31264604008515    1.06774951143034    9.00797035417669
H        14.80870019265088    1.93306234403544    6.46831374988402
H        14.85321941382885    4.65223470834243    6.71575450043194
H        16.94590462119190    4.25362975293763   12.94827893502438
H        18.27236419679311    6.36229570375799   11.91214026103880
H        16.67093444790033    7.19498762546353    9.85990374086817
H        10.84798093351727    3.98860460521042   11.78490342808089
H         9.89643612463006    6.30472901622688   10.70719529486833
H        12.04219878378073    7.30353692282512    9.34504905146256
H        15.16976217281460   -0.20024968208869   13.37104628520867
H        16.35340444876389    2.06889063082652   13.43151026373840
H        15.03061113405407    3.97644295373985   14.18627732590326
H        11.59426717739378    1.44328479481441   13.77552222360934
H        15.48472804635089   -0.28381000871012   16.89533848435759
H        15.83350240355095   -1.21246373985429   15.40584961441531
H        14.14708682169026   -0.89378272040237   15.88581817472550
H        12.45049874197410    4.18756691115033   15.38976480249199
H        11.26621492344936    4.02973989079719   14.10018943964446
H        12.66440830850748    5.09802435299800   13.88040736688119
H        11.77849523261468    0.75289002585733   17.21540710207778
H        11.92198275344545   -0.29921714488427   15.77926677340930
H        10.61126746274979    0.90158658542223   15.86871119150070

