52
CSD_code = MOQQAK | q = 0 | S = 0 | Stoichiometry = C18H21BMoN6O5 | MND = 8
Mo       13.14443095237284    3.19835181229606    5.02031940083250
N        12.97040837070166    3.19748759902898    2.90451316184346
N        11.80143690689451    3.19814764700526    2.26227814381387
N        11.58390081483010    1.67878702169611    4.70298250325347
N        10.52982280792939    1.94841705832751    3.92971563921777
O        15.60758005826906    3.20407171937763    7.43770254480371
O        14.64471641209009    1.73160249272708    8.98887403874399
O        15.37049053306525    1.07852279375010    4.85285151588607
B        10.48399034460672    3.19983836950515    3.06163707397224
C        13.93246576836798    3.19631793503827    1.98687769298960
C        13.36824498965110    3.19634727788870    0.71513234884717
C        12.00495833191698    3.19758464438507    0.94145660901630
C        11.44736831812297    0.42617257899140    5.11912131973569
C        10.26649293267789   -0.12255152656019    4.62331042476208
C         9.71554626018111    0.88528556497583    3.86336826062664
C        14.88525165281461    2.01401489460162    7.63390419313198
C        13.52413976840779    2.01962848529948    6.96689165595415
C        12.72484857177968    3.19042554300626    7.13889864469120
C        15.78806298338248    1.31815720525290    9.70180486754278
C        14.51947264086082    1.85132380369139    4.91916845125568
H         9.54121508821872    3.20072140487369    2.34874786911899
H        14.96854894320424    3.19556689933099    2.27405781332186
H        13.87415421212197    3.19564390537076   -0.22791295650771
H        11.18603751510897    3.19807744115128    0.25063534048399
H        12.18652273741372   -0.05765020874219    5.72669863014882
H         9.88166984984707   -1.10678687740825    4.79177562301786
H         8.81322479367201    0.91043633519156    3.28717806311898
H        15.54615486194243    1.23241219211066    7.21745545368974
H        13.02931530243404    1.07274800067023    7.17537635850648
H        11.72141475046296    3.18355886135767    7.56142541014827
H        15.47933919553355    1.21788898159921   10.74005392287973
H        16.59520177658322    2.05157569215894    9.62439508648544
H        16.15095045074448    0.35358035981411    9.32471728901791
N        11.59002626759586    4.72074330686374    4.69842469360420
N        10.53318442518919    4.45196354859161    3.92869720912876
C         9.72018398311566    5.51610252955860    3.86420969883633
C        10.27484886733130    6.52369888763162    4.62188787487646
C        11.45662853409817    5.97383090338894    5.11428142582396
H        12.19886365154663    6.45662074245726    5.71901006973598
H         9.89156390310944    7.50843392165382    4.79096075043606
H         8.81606491320824    5.49178937094481    3.29078370591364
C        14.87417180153394    4.38689810472281    7.63779849962987
O        14.63563064610999    4.66458460522898    8.99412305554138
C        15.77908372852379    5.08175433882953    9.70473705734181
H        15.47262222070527    5.17966458180416   10.74386491844647
H        16.58886765941962    4.35156047997614    9.62443525656370
H        16.13745809985005    6.04806851102477    9.32777756847626
C        13.51119790523363    4.36981926335580    6.97488496194637
H        13.00646734955428    5.31046226094599    7.18801155390686
C        14.52420364729185    4.54007872199276    4.91730258546445
O        15.37704258815781    5.31063591073345    4.85333087657241
H        15.52681091221416    5.17538410253222    7.22126584340430

