82
CSD_code = MOQROA | q = 0 | S = 0 | Stoichiometry = C30H45CoO2P4 | MND = 5
Co       -0.08770937096580    5.62686594701904   17.65049343767053
P        -2.06717046262709    5.54773052721314   16.35641437880671
P        -0.07314963961136    7.40895490641630   18.96945049631550
P         1.61266788939674    4.41807503068155   16.84711043934263
P        -0.83266490313912    4.17537328781474   19.13101434654640
O        -2.06677259972224    5.85387408133797   12.38892305837803
O        -2.70987025379134    7.99845842262910   12.49081893806496
C         0.19445455424860    6.78670012776177   16.15616495116764
C        -0.96683278221067    6.61975121362687   15.38903291627391
C        -1.12228971838861    7.19042337725510   14.13061420294197
C        -0.10376289821826    7.99539538801539   13.63989268542469
H        -0.21637828965731    8.45220362589528   12.66868357487935
C         1.03414613381207    8.21051901354408   14.39905291214011
H         1.81880112595478    8.84714474319295   14.00990329882776
C         1.19309249442186    7.60484547999074   15.63547662945840
H         2.11224866501796    7.76917702704500   16.18435659282506
C        -2.33317657191726    6.90439475809060   13.29368045006185
H        -3.19167344283010    6.61880895690445   13.93844145071570
C        -3.03481089817079    5.97068102525874   11.37572607126104
H        -2.57258349145676    5.68514110583350   10.42960312670928
H        -3.88833638530108    5.31108195493493   11.58287202615365
C        -3.45841465398589    7.45937408420769   11.42657221126385
H        -4.53410770894300    7.55612931827884   11.62493530698899
H        -3.20425563769073    8.00999033303651   10.51884054228987
C        -2.59291799625046    4.29719503802625   15.13270992581114
C        -1.57509885007833    3.44760790210408   14.71035009623350
H        -0.58832218482971    3.58470213435899   15.13814919431209
C        -1.81736490511492    2.46401873840388   13.77417018824000
H        -1.01609605389809    1.81941211884876   13.44051125629247
C        -3.09497788854766    2.30336937162006   13.26183847320307
H        -3.29341807107479    1.53590677388468   12.52745130462807
C        -4.11887715375150    3.12830504238684   13.69545672392314
H        -5.11765723399389    3.00073673791457   13.29975793814821
C        -3.87522043484867    4.12168639871069   14.62738909395283
H        -4.68362730854768    4.76566178307543   14.94665476075811
C        -3.58519584154507    6.52690450628699   16.59726981382899
C        -3.66293702552857    7.88536908993924   16.30573669422127
H        -2.82486751067285    8.37859187232250   15.83215391246048
C        -4.81053536196464    8.59712797842651   16.60490693316862
H        -4.86620661604962    9.64926687901638   16.36374375520265
C        -5.88750755537049    7.96825455748300   17.20858807002706
H        -6.78281549300888    8.52736625920711   17.43882353078777
C        -5.81160628178569    6.62000267519371   17.52124339537756
H        -6.64726166855424    6.12697258379499   17.99840764485390
C        -4.66535410125801    5.90738285795084   17.22590228902646
H        -4.60008597474318    4.85423374187039   17.47319157204740
C        -1.68651730499431    8.25334598883743   19.21816248853818
H        -1.58942706671324    9.07261893667148   19.93017407240269
H        -2.43358931419984    7.54595236478729   19.56864077603130
H        -2.01357381786544    8.64051727527371   18.25502497832836
C         0.47782315880502    7.24424492808754   20.72358240649366
H         1.50787082360153    6.89086588530107   20.72935287660911
H        -0.14041726402928    6.51800025234355   21.24480973493665
H         0.42095260327641    8.20304571049176   21.23785756082443
C         0.92228450654536    8.89617009085725   18.55322060773940
H         0.76985838306550    9.67274310465659   19.30237339016938
H         0.62265604157135    9.26566266082024   17.57540622063948
H         1.97639044199918    8.62885769117496   18.52047126733060
C         3.12799053937301    4.90918550956498   17.76661876649712
H         2.99986519086600    4.65583964327336   18.81752969734858
H         3.24335646433803    5.98735250542152   17.68417750377333
H         4.01146033743954    4.41031701799411   17.36912726312875
C         2.24316605191862    4.60780949760829   15.12945584489086
H         3.10506784331785    3.95988982275261   14.97119603894335
H         2.52605200837767    5.64342317140910   14.96287008760268
H         1.46057574704832    4.35631772715502   14.41596723512020
C         1.81181309350298    2.58297201620712   16.96780593379554
H         2.82736913852762    2.29683125263035   16.69514240330402
H         1.11121375628622    2.09586351433917   16.29133346698468
H         1.60857514205814    2.25104621312792   17.98334486022280
C         0.15795407150490    3.42389349813917   20.49407685383716
H        -0.45185524745047    2.73641196949258   21.07952976751267
H         0.54078206991292    4.21028085564776   21.14118744399267
H         1.00618770058245    2.88703218514173   20.07433904724220
C        -2.31771332785286    4.67211434398751   20.09687436451000
H        -2.73253488794458    3.81581366823545   20.62873067838572
H        -3.05924445811062    5.06638149993384   19.40376418287460
H        -2.06231474119260    5.45091122745299   20.81189960591067
C        -1.53780112227815    2.64760861593895   18.39136799811021
H        -0.77882288991330    2.11896175995669   17.82198596885597
H        -2.33372469932414    2.93911388978529   17.70672372131758
H        -1.93802861481840    1.99263492889731   19.16539427479064

