64
CSD_code = MOQRIU | q = 0 | S = 0 | Stoichiometry = C24H34CoINP3 | MND = 6
C        11.36104046474382    4.07966907794232    8.84527153516312
H        11.96635427935129    3.34492125826453    8.31049006567375
H        11.89153554245524    5.03132797898370    8.77157608423601
H        10.40421784797524    4.17834006715823    8.32977349191018
C        13.07711304660517    3.22533035575408   12.34946622646706
C        12.92266065278864    3.55961139238411   11.00109903405278
C        14.09140730022902    3.81261287400300   10.29413431429605
H        14.08055289187826    4.07333881367826    9.24401439994599
C        15.30786836456257    3.72825696901154   10.95896167258073
H        16.23390949176793    3.92011606365733   10.43552771657874
C        15.32692915518974    3.39629149874944   12.30459999978783
H        16.25697729717866    3.32586533880337   12.85540307402837
C        11.31650726485816    3.81606487244186   14.60631535875965
C        12.44310633156597    4.25415204859962   15.28995048430817
H        13.42386472501297    4.08983218762558   14.86688472070071
C        12.29733619401310    4.89117011958653   16.50987099923729
H        13.17309763914200    5.23514549910854   17.04142427040875
C        11.03773575021739    5.08272371636318   17.05361540957268
H        10.93163008119415    5.57757575098237   18.00793338148468
C         9.91356179675531    4.64024569255945   16.37456060135016
H         8.93046914250228    4.79015810992778   16.79623598111333
C        10.04981434777659    4.01018084585120   15.15214724009082
H         9.17410884469524    3.68308812100281   14.60687808760055
C        11.54422693836655    1.27387865284797   13.84276349494481
C        10.36034806279173    0.72552872578300   14.33344478704375
H         9.42598483701698    1.25026121025898   14.18421981190520
C        10.37831107674184   -0.48944081075169   14.99020867993142
H         9.45843857075966   -0.91025207773327   15.36899892855252
C        11.57556336302082   -1.16815583017155   15.15712809416015
H        11.59052042541851   -2.11953829748078   15.66833385368481
C        12.75218793971984   -0.62584383612332   14.66885711477544
H        13.68624003289858   -1.15300223615548   14.80124838774185
C        12.74237157969844    0.59404165498133   14.01417890635423
H        13.66436331462081    1.02270517412113   13.64934783681901
C        12.62330844973725    0.63785717439606    9.79694547979837
H        13.22834303477181    1.21716859334112    9.10131339055790
H        13.14142195963791    0.59202451477995   10.75496144116203
H        12.48652450839644   -0.37171819950117    9.40967665855371
C        10.20621600155673    1.12196698308105    8.41194021213749
H        10.27185910938290    0.05451378476952    8.19882055582060
H         9.15905452640387    1.41735203075475    8.46497842518417
H        10.69275817388748    1.67908015036392    7.61538503321666
C        10.14809761906880    0.15232290446799   11.00965814180475
H         9.13354752374619    0.46992545390909   11.24509388980970
H        10.11177801666691   -0.76461784097061   10.42022865231924
H        10.69027622958566   -0.03596217907217   11.93379524007644
C        12.44654010962104    6.63322396287463   11.38576385207866
H        12.23735452672056    7.68719190494995   11.56828114078549
H        13.00990096138282    6.22497900183262   12.22491214143153
H        13.04559093198170    6.53159628737590   10.48236886481588
C         9.99484002585148    6.76180559119662    9.99242207025386
H        10.01770227448110    7.79331969021422   10.34517517738307
H        10.45925626436588    6.70612018928242    9.01116008935985
H         8.96131374507103    6.42731937941374    9.91580602003214
C        10.02323741266255    6.26714936035552   12.72496019083525
H         9.91529694394863    7.35167517677640   12.68929278593650
H        10.60691074744967    5.99218687625847   13.60131330110636
H         9.03757810670667    5.80934083958474   12.78921598395961
Co       11.02790966566700    3.54644210370436   10.73540159811434
I         8.44187870216185    3.46475767459630   10.76390713515000
N        14.22986525668992    3.14098659099800   12.99942205839838
P        11.42745104267404    2.90640178183450   13.02358366831599
P        10.99509925844880    1.44815078456822   10.03268469907284
P        10.87383427776315    5.70663845184155   11.20456805726721

