42
CSD_code = MOQWOG | q = 1 | S = 0 | Stoichiometry = C19H17ClNO2RuS(1+) | MND = 9
Ru        1.70660353110819    3.84699034726138    6.55212953174661
S        -0.11894574510596    2.79370666716594    5.47254725340011
O        -1.02481341794349    4.87807656182102    6.25562525803845
O        -2.47636673217597    5.33565646005768    7.88677653288980
H        -2.27381857664600    6.26093153425860    7.67263111312458
C         2.87555143807372   -0.66820187702627    7.56505623351523
H         3.12782853351056   -1.68740769685178    7.80961535824585
C         1.76000157773049    0.93548906872770    6.17612927795436
C        -3.03793082696735    1.29790251641878    8.64810945605534
H        -3.73532948812769    0.96018319108149    9.39783300638144
C        -2.26198121547490    0.38204074339539    7.95608273382962
H        -2.35689687513220   -0.67260142590856    8.16389242119439
C         1.97218990579276    6.20108186976377    6.66354287401307
H         1.43866682308269    6.96164150882551    7.22061256498082
C        -2.00556107632290    3.07703238802506    7.41094488250399
C         3.33344027239657    0.38621952479732    8.34063427540387
H         3.94847592269222    0.21590527251966    9.20853184073009
C        -2.90845368151480    2.64636141795981    8.37824357061383
H        -3.48980560158174    3.38142252524647    8.91106163365462
N         2.21784034484796    1.95013496466104    6.93033310507412
C         2.07388560908839   -0.38377114908034    6.47146002662316
H         1.69461784121678   -1.17521288554375    5.84429479556933
C        -1.21927068098299    2.14865324093607    6.71420938486567
C        -1.35715755470988    0.79901646887561    6.99205590186583
H        -0.77095701091006    0.05697327119054    6.47799267261298
C         2.32475888054433    4.91659053104401    4.62530137998472
H         2.05397331431012    4.71588245557179    3.59468527869108
C         3.87715251911487    4.68001897030747    6.49373123615615
H         4.80544807402567    4.28605230644144    6.89298195884348
C         3.11435738891238    5.58287529623408    7.24373451272449
H         3.43946735761508    5.88168354929914    8.23466198677624
C         2.97893933080121    1.67531825079937    7.99034510828981
H         3.29096774751089    2.52210852014285    8.59065934410155
C         0.89387454597122    1.31428478798844    5.01960284339469
H         0.27097174001086    0.49923025942210    4.65826792477855
H         1.50122806586283    1.68095518283120    4.18651748209307
C         3.47129526464883    4.32753865775255    5.18054473111633
H         4.09653491807927    3.67519897913385    4.58166957151241
C         1.59688448352511    5.88837339425662    5.35967159417235
H         0.76382454715980    6.39688517439803    4.89173379073775
C        -1.78817542478885    4.50217580015427    7.13604367965548
Cl        0.67758393075402    3.72040337564581    8.64770187208844

