55
CSD_code = MOQXAT | q = 1 | S = 0 | Stoichiometry = C23H26ClIrNO2S(1+) | MND = 8
C         7.76450822796381    2.29643370552468   14.04212198689800
C         6.78449977456873    3.24617635138213   13.79813997171066
H         5.90043252119435    3.00765002583033   13.23227847896951
C         6.92717449701168    4.53202703275720   14.29193953420744
H         6.15349258415565    5.25797542159035   14.09472715477439
C         8.04419837799809    4.89120443855266   15.03047577231123
H         8.14588350116351    5.89735157217106   15.40427012390408
C         9.02454719389086    3.95328651884654   15.28370360266533
H         9.90637494059615    4.20441784191907   15.85054067782849
C         8.88679745774217    2.65528668664618   14.80059612020479
C         9.91689404593737    1.63663818442466   15.02329353668292
C         6.33756471292652    0.72618448053286   12.18620942695493
H         6.22900108014144   -0.30897352860894   11.85607109550159
H         5.39084769034262    1.04911235256475   12.61258988042859
C         6.79291514695044    1.58670297520188   11.05429779742642
C         5.92580222785328    2.44606599160457   10.39255631377898
H         4.89075599281353    2.49588121788116   10.69227736356983
C         6.39839680467010    3.22644041204703    9.35104937629404
H         5.73910737101503    3.90230854919539    8.83002026534958
C         7.73589141456537    3.12364677223388    9.00088292469308
H         8.15268784039758    3.71567175734368    8.20327636942176
C         8.54094652433526    2.24759248092707    9.70337148191932
H         9.59325470451319    2.15672376330677    9.47701360501810
C        11.08553868049252   -0.71441876617249   10.73390793126413
C         9.87455056881682   -1.23049525892730   10.15336788710425
C         9.12156163134496   -1.86123853939448   11.18924340230076
C         9.91062814948118   -1.82309998548429   12.39842544384303
C        11.10230605039431   -1.10067504722187   12.12766567962369
C        12.26319028586439   -0.93730604645297   13.04772443774052
H        11.95189075288011   -1.08175318092168   14.07783435496080
H        12.70246496435381    0.05184145488953   12.94012652513122
H        13.02842158567354   -1.67604160475226   12.80609524272906
C        12.24417723528969   -0.11942384320131   10.00991438978932
H        13.04002356992462   -0.86162991170886    9.93633726757808
H        12.63827851178381    0.73788002485115   10.55197904749167
H        11.97358201817549    0.19376416977469    9.00561396789947
C         9.52368812459970   -1.20729399940117    8.70544391590199
H         9.92934709797508   -0.32916843943165    8.20933761864148
H         8.44731872609722   -1.22734677503687    8.55426634157830
H         9.94679549868275   -2.08996641163834    8.22382213804464
C         7.87858229432947   -2.66394324027655   10.99201486925305
H         8.14489944215988   -3.68830357408608   10.72768598911141
H         7.27030997465093   -2.26096328830734   10.18522675751373
H         7.28134497061923   -2.69842257993060   11.90019203744685
C         9.59845857802958   -2.51620768457609   13.67606436551763
H         9.60264631377411   -1.80855775916670   14.50224611148206
H        10.36138111409357   -3.26894218866780   13.87328054620792
H         8.62959237733875   -3.00385571653680   13.63950088467258
N         8.08623148656271    1.49553174953485   10.70547063969978
O         9.73411766911581    0.46467758337885   14.72221934861846
O        11.02314397872341    2.06221055316400   15.59835094191947
H        11.67352860252733    1.34719541389244   15.68431924962813
S         7.66113199090346    0.61676007444445   13.47455788684769
Cl       10.47549068909297    2.29893605239908   12.28854116365336
Ir        9.39750243350177    0.27345176110900   11.75612075629225

