86
CSD_code = MOQYEW | q = 0 | S = 0 | Stoichiometry = C40H44NTa | MND = 9
Ta        2.28145023621649    4.53831258041593    0.75429141843590
N         3.99135734192180    4.54441422798628   -0.18191783016409
C        -0.64622781589688    3.99243553260665    2.30116783645275
C        -0.14466477789171    3.13687065413991    1.33978399805930
C         1.16342442107898    2.67688090593217    1.78526124266805
C         1.33245450350902    3.19900090219955    3.13872677339058
C         0.25813515380964    4.01619401126823    3.41951590055871
C        -1.93766619192344    4.74181248794972    2.26486157586933
C        -0.87550162676031    2.59416748592445    0.14967619894502
C         1.68142538272939    1.31251238783258    1.41355212988439
C         2.43100189780813    2.75482757005479    4.05258526877507
C        -0.03226978639706    4.77790862351815    4.67169196789886
C         4.09471594056135    3.23983036092999    0.30674367004041
C         4.98993769752923    2.97591973869559    1.39090325798868
C         5.39831065570174    1.74382669577653    1.77019982636793
C         4.90597949722722    5.27711552432131   -0.89666858076164
C         6.04251211032758    4.76067099778312   -1.55775057154697
C         6.87680782192607    5.64297690638580   -2.22895289584756
C         6.63259822443216    7.00308770457505   -2.28363672064029
C         5.50828227618664    7.51025359116157   -1.65484267413403
C         4.66434983239475    6.65970706559244   -0.97725807718984
C         6.37522822883469    3.29772036793403   -1.59513429834586
C         6.20566633481144    1.42416713109227    2.92396729771372
C         6.66324906442342    0.11176151405113    3.09232628666001
C         7.43230098190086   -0.24264168065612    4.18176580135345
C         7.76223154315683    0.70384053354958    5.13857314167998
C         7.31154696781865    2.00637866215266    4.99167754898641
C         6.54400611054968    2.36549721475461    3.90278162863760
C         0.95359854611594    5.05973564843231   -1.07009417175458
C         1.54413205020907    6.11059974390556   -1.91153802549392
C         1.29832453955059    7.46113506191029   -1.65022544604110
C         1.86191186600338    8.44987807689479   -2.43323911029158
C         2.68422736650851    8.11388482493873   -3.49625522933490
C         2.94163892319982    6.78010898056337   -3.76679506237491
C         2.37890165556390    5.79084456689526   -2.98496914837853
C         2.57935268213428    6.36907638390617    2.16965199184069
C         3.76684256793183    6.23062886741706    3.02853573940478
C         3.64956056804889    5.86801765047898    4.37225925719605
C         4.76624327584645    5.70489057750450    5.16980574091565
C         6.03269132439770    5.91027419117496    4.64792109506021
C         6.16859614587292    6.29101542455807    3.32161485798672
C         5.05316724615316    6.45277348392780    2.52259421659885
H        -1.79277322141502    5.77790275569819    2.57184069355939
H        -2.37007930066524    4.73148053515963    1.26693086001754
H        -2.65877487315525    4.29242273880684    2.94977767207839
H        -1.51719844848288    3.34421879054474   -0.31017443161467
H        -0.18660095373260    2.21750573589443   -0.60399598914870
H        -1.51188764975951    1.76347912624724    0.46284977180904
H         1.05645969354296    0.54078975841031    1.86722979605384
H         1.66638297615637    1.16143966257584    0.33405427314081
H         2.69941121739868    1.17891669994762    1.77186867497886
H         2.33209346447703    1.68721565256383    4.25691918905229
H         3.41330530197927    2.91762332068665    3.61029962682549
H         2.39365199411612    3.28165954163834    5.00156441142893
H         0.67752559744288    4.53309932541725    5.45778225243565
H         0.00145068083187    5.85580761586204    4.49678200956354
H        -1.03330710360846    4.53797988544045    5.03061976062686
H         3.94499280087627    2.42837816716120   -0.41414376105568
H         5.30771132682451    3.85530502476409    1.94260029371923
H         5.11010943764308    0.89719809783524    1.15675284054142
H         7.74745991923987    5.24541008504158   -2.73178551510468
H         7.30763706091180    7.65541107584772   -2.81619514040642
H         5.28823461098008    8.56656324429062   -1.69155644134505
H         3.78072766765295    7.05097902902642   -0.49530048241027
H         5.57063015199675    2.73114334941170   -2.06115064625536
H         7.28042556851677    3.13977637788386   -2.17729681672896
H         6.53743363629280    2.90166664236833   -0.59442451857093
H         6.40937749848028   -0.63258473466052    2.35007821853470
H         7.77659093065661   -1.26146191868914    4.28889768519679
H         8.36266447095163    0.42789409081588    5.99284490734815
H         7.55915940459329    2.74855002394400    5.73709811011705
H         6.19786247927469    3.38396214370650    3.81570972722492
H         0.81722459942519    4.14376980343533   -1.64865622848193
H        -0.01489549171271    5.38253607801903   -0.68016095491485
H         0.65055461850871    7.72941923515843   -0.82492752625899
H         1.65619092648876    9.48872069618311   -2.21716212616498
H         3.12025078963570    8.88676583168869   -4.11132510990778
H         3.58518646970436    6.51174317640033   -4.59175191751017
H         2.58125038177344    4.75073208184949   -3.20403091285526
H         2.68670551908881    7.23068216207989    1.50529861907951
H         1.67907872963612    6.50464302164059    2.77422016344936
H         2.66549001313432    5.72933596915809    4.79304832849008
H         4.64975147096653    5.42068220720099    6.20594189667659
H         6.90654358839380    5.78486258210212    5.27004279306204
H         7.15181455784954    6.46248753004652    2.90702482941619
H         5.17574670424755    6.75747460086656    1.49240328770455

