83
CSD_code = MOQYAS | q = 0 | S = 0 | Stoichiometry = C39H42NTa | MND = 9
Ta        3.42841193984479    7.63501809308778    1.03837594321460
N         3.49969080356609    7.56891870419707    2.97852492455646
C         3.17131766251440    7.08476474200452   -1.98356004188101
C         3.36077328525969    5.89456992389261   -1.26074800049160
C         4.56319027821854    6.02101073848286   -0.51040028839597
C         5.13531163530874    7.30960290758672   -0.81710746335648
C         4.26752434169604    7.94575174705300   -1.73599145567395
C         2.05763826951314    7.39612111323273   -2.93100636566027
C         2.53599770081659    4.65038016408245   -1.35866207651869
C         5.30960964884617    4.86452348335116    0.08248914262836
C         6.54824044214470    7.71146348662472   -0.51340703481587
C         4.51853725447506    9.21146228262500   -2.49285740992680
C         4.56589873817566    6.68683858956120    2.74362640193522
C         5.90019126459904    7.14881102346684    2.97668217367899
C         6.98422368644907    6.35550813760835    3.12169026260162
C         3.09690452431602    7.96525509245690    4.22406070475250
C         3.66497837542423    7.43874938930999    5.39353729262615
C         3.22906092302623    7.85675011865665    6.63418291792247
C         2.22750565434658    8.80724074654029    6.74736517489706
C         1.66622642073053    9.34469298986788    5.59880049841034
C         2.09043236964125    8.93492967219585    4.35298132360694
C         8.35519576857774    6.79966497980465    3.22878208212068
C         9.35044924229447    5.87009721617340    3.55234952124956
C        10.67349286338520    6.24764451253664    3.65885398161949
C        11.04117518098938    7.56526863824747    3.43850135868517
C        10.06982771624454    8.49733955205179    3.10815037273381
C         8.74550673682554    8.12451255203181    3.00207681237225
C         1.23930040792352    6.88804852321160    0.85835993932098
C         0.33568865287179    7.53519451553638    1.82095550897643
C         0.03612987205416    6.94263940184714    3.04974450034569
C        -0.81165846435641    7.56061815310907    3.94847438763247
C        -1.38019469442130    8.78603151929512    3.64273888163799
C        -1.08926628599743    9.39185850737211    2.43077688503764
C        -0.24330120558691    8.77404303893673    1.53030479700065
C         3.49839245667347    9.97406338822348    0.95698791936153
C         4.74769198648534   10.52886468187964    1.50509240584660
C         5.76703103410125   10.99542374327579    0.67118485961196
C         6.95745661635666   11.47032445969455    1.18972089405312
C         7.15736830830726   11.50469691268311    2.55953960289149
C         6.14422884888940   11.07930628738949    3.40507830774984
C         4.95522559965595   10.60307714942785    2.88731838375276
H         1.68456905673654    8.40882859276458   -2.77405130885032
H         2.40915535403701    7.33150053923864   -3.96275126751006
H         1.23099998298062    6.69868216342910   -2.81508055207360
H         1.48948830438247    4.87654963835799   -1.55463827423447
H         2.90066819389836    4.02598951930763   -2.17716520228349
H         2.59742559214368    4.06527013253689   -0.44281305163489
H         4.64268647756418    4.20606636423293    0.63904359669262
H         5.76970809031400    4.27514342755777   -0.71328987888729
H         6.09857181306402    5.20380358556375    0.74911341427151
H         6.90510129822166    7.23892491321850    0.39948402319261
H         7.20667063487783    7.40692595979792   -1.32970238033206
H         6.63917593701288    8.78899349252476   -0.38950087452982
H         5.45604946995068    9.66920187795225   -2.19006753093098
H         4.58031996089643    8.99094769052095   -3.56009433745529
H         3.71172338501008    9.93448062895617   -2.35952251472824
H         4.36532686824094    5.63343837582156    2.97899453966207
H         6.01008510060905    8.22834139519857    2.98241159693782
H         6.83650344162667    5.28234547131507    3.17614412624169
H         4.45299744047521    6.70497175871902    5.31187579962037
H         3.67791523867451    7.43701520409326    7.52293036572088
H         1.89088241969699    9.12974834035416    7.72095740522698
H         0.88921907566333   10.09117169308034    5.67495506525831
H         1.65295038286382    9.35529443433424    3.45998892042322
H         9.07103572622675    4.83979472515826    3.72526151448542
H        11.42387748049912    5.51270515062120    3.91340435993434
H        12.07629842851849    7.86250257702119    3.52002865126185
H        10.34987858113769    9.52535669789486    2.92751248896749
H         8.00919146233110    8.86632656253806    2.73286497909477
H         0.91186606405967    7.09552430594348   -0.16181928663597
H         1.25433196375029    5.80779252223501    1.01461564551832
H         0.47562037117009    5.98533062254061    3.29527877282083
H        -1.03094077167356    7.08528406011114    4.89335769513450
H        -2.04763900997875    9.26557197511805    4.34311250186696
H        -1.53031836383906   10.34769049459881    2.18547348263487
H        -0.02496175590541    9.24772690090784    0.58128967906079
H         3.34493791566637   10.31391401816495   -0.06930178824385
H         2.64690379693091   10.29561835497842    1.56094706017032
H         5.60950982018852   11.00793521170005   -0.39799124756280
H         7.73163243394412   11.82155890781978    0.52209571011895
H         8.08748177610313   11.87326032712109    2.96590426847720
H         6.28292724825039   11.11797197803969    4.47601039760176
H         4.16936745307544   10.28581853110800    3.55836540844057

