93
CSD_code = MOQZOH | q = 0 | S = 0 | Stoichiometry = C40H44Cl2N2O2P2Ru | MND = 6
Ru        3.30116213981835   10.06637608071832    5.27965227253662
Cl        1.25467841419445    8.91431496396497    5.87465241899650
Cl        5.15414622985596   11.54379656281546    5.10773116222857
P         2.82094652162963    9.91314661943528    3.04721783434816
P         4.70842148921569    8.27350769665673    5.20346216046729
C         1.75843008122908    8.47890119041989    2.57824442787366
C         1.12525105755605    8.58560011947077    1.19175627315692
O         1.30060266219440    7.35378812304388    0.52830399085049
C         0.73961583870478    7.33717911541751   -0.75695448300486
C         6.19066723632381    8.42422424327224    4.12117986356792
C         7.23249590006993    7.33572518357228    4.35006162252173
O         8.01009441046032    7.21828012999585    3.18067427401864
C         9.03501744723851    6.26839654339260    3.29794435374265
N         3.35525064700878   10.29638081896782    7.48518400701606
N         2.01450639404913   11.81531249380700    5.66891762111408
C         3.77477254387884   11.53146596776510    8.05509354136616
C         4.61118526218241   11.48963812761171    9.14635492050870
C         5.10023430630686   12.65714215524700    9.73860164268526
C         4.76400739115099   13.87194806477298    9.21662071056709
C         3.93599383887252   13.96418672284425    8.07916142436679
C         3.40108419988074   12.78373328355709    7.48947266342635
C         2.59925822236089   12.93273716036709    6.32186906914202
C         2.40183240354799   14.17762257481189    5.77150238364212
C         2.93254418495333   15.32824765470203    6.36065543815406
C         3.66725360333578   15.22412364449779    7.50557807634302
C         4.15078540637769    9.87582519998142    1.80449657609952
C         4.32769024436760    8.84298248454605    0.88702048374593
C         5.40383723999207    8.87087601541216    0.01593915210724
C         6.31232645606982    9.91503339227219    0.05280719803631
C         6.14996098202486   10.93659370720361    0.97429080627011
C         5.07952613436485   10.91601721589148    1.84848396644274
C         1.75013994900244   11.28310928438882    2.46806223611338
C         2.15385386033256   12.28178506481678    1.59034860801960
C         1.28772218086133   13.31202901615896    1.26308544129248
C         0.01510865137200   13.35980195330145    1.80657373401733
C        -0.39666689793897   12.36807429515388    2.68346633657560
C         0.46598613760795   11.33972286339088    3.01579387512224
C         5.56881317357441    7.91965162002346    6.78020348930452
C         5.61388890892036    6.68232726778325    7.41138687125168
C         6.33097482907563    6.53199875079783    8.58688090084208
C         7.01338430086441    7.60539402430511    9.13468492834540
C         6.98027565820852    8.83963279804114    8.50392606883437
C         6.25838220407131    8.99849895169916    7.33554196502113
C         3.96753177873831    6.67963985578499    4.74104778955344
C         4.20772766584650    6.04413817814009    3.52610348158924
C         3.51184049089709    4.89358382478511    3.19623841612976
C         2.56576437710810    4.37430712350713    4.06395441092562
C         2.31158259547846    5.00922063154097    5.26914088239851
C         3.00418551347590    6.15715673849305    5.60298019829428
H         2.38251578593251    7.58191026473859    2.62296336016274
H         0.99869218654485    8.36098759413373    3.35223532700882
H         0.05256639794304    8.82057055093689    1.26881402017665
H         1.59378402880419    9.39347085004523    0.60255766406715
H         0.93358864220714    6.34968916943396   -1.17058860128825
H         1.19677428458624    8.10144254319267   -1.39905334670204
H        -0.34292827459077    7.51264483207689   -0.72130553508614
H         5.86174576532144    8.39805338723128    3.07945526238861
H         6.60904746277878    9.41854224923655    4.29662491406421
H         7.87409573804115    7.58676990150695    5.20887879654612
H         6.74771013077590    6.36889166291522    4.57275734066993
H         9.56380286496729    6.25961986259162    2.34713425475171
H         8.62954075794392    5.26844991091286    3.50181737081507
H         9.73300628855601    6.53205350658612    4.10279782570838
H         2.36114008064893   10.08930080905398    7.65442409562187
H         3.89171188825406    9.53654318111332    7.91055874109552
H         1.56222547638241   12.12992945274295    4.80687645646689
H         1.29171994755886   11.35111937064213    6.23315097506855
H         4.90496159073409   10.52980432025554    9.55011822562649
H         5.74777140980131   12.58342712285785   10.59931225357775
H         5.14566450279276   14.78411457537016    9.65038341498729
H         1.82616869461996   14.26558082722006    4.85886879472756
H         2.75155000579075   16.28914851905812    5.90330036503959
H         4.08023136886881   16.10271137936300    7.97818417362084
H         3.63912040068579    8.01321287917380    0.84505298265307
H         5.53501902430547    8.06615387374399   -0.69350012880053
H         7.15097082533086    9.92614930911760   -0.62784464581079
H         6.86420436333111   11.74533087455793    1.02002235177886
H         4.97608850920514   11.68491011088191    2.60154354863155
H         3.14243046518576   12.25240334894657    1.15704187103963
H         1.61042047361110   14.08243695606226    0.57799014663487
H        -0.65513254942361   14.16643962421034    1.54861859264098
H        -1.38915514455213   12.39883895362928    3.10990666800204
H         0.14961776988564   10.56505368418940    3.70401213183319
H         5.09548549871521    5.83510187645321    6.98605158891609
H         6.36102337406564    5.56812231022142    9.07423090227340
H         7.57303030560647    7.47902924281930   10.05000516329750
H         7.51740816533193    9.67875438604439    8.92195906027220
H         6.22184624129622    9.96025111870287    6.83652642145106
H         4.93427342560902    6.44433387244797    2.83423227190647
H         3.70295288736588    4.40598635014328    2.25116257505160
H         2.02064611917799    3.48063870140814    3.79769272501344
H         1.56507681351992    4.61507503992001    5.94320334636304
H         2.79121173975033    6.67172614556066    6.53093079180028

