73
CSD_code = MOQZEX | q = 0 | S = 0 | Stoichiometry = C28H41NOSiTi | MND = 9
Ti        2.12841714191913    2.94121651269743    3.41702262043268
Si       -0.17562296741067    4.74528566668332    4.38206480255229
O         3.48809110950449    3.03847961853763    1.71180537144992
N         2.21561169969393    1.27962999785491    3.57187054614864
C         1.67088733068495    4.73862390281873    4.79067029596998
C         2.25740490196384    3.64240896347848    5.50727335042219
C         3.61150689190925    3.52373780773397    5.09804981107968
C         3.85938304962809    4.53610099166935    4.12572790795637
C         2.67280542568257    5.26497776925825    3.93281714526557
C         1.58994617466931    2.90659781056695    6.63614887252369
C         4.70204363960602    2.70516401615015    5.72965076174933
C         5.23206782070894    4.83017445272002    3.58907977795583
C         2.53961721530045    6.53693842721333    3.14031330205497
C        -0.81293681651054    6.36333715242162    3.57111772679835
C        -1.34744141219318    4.48837776968571    5.87059555593758
C         2.23628589142869   -0.10138767435457    3.85262376065748
C         3.62626908995241   -0.54463280290292    4.36633766109780
C         1.89204096373375   -0.91533311950789    2.58565239558250
C         1.19339115966288   -0.43121776948225    4.94194768168744
C         3.95009439928845    1.80387316798301    1.17602598640813
C         5.15871984976408    2.15547567899185    0.29144351600686
C         4.96168680304724    3.65050718423658   -0.00998300197737
C         3.60671151977272    3.96277633054896    0.63975362285082
C         0.56386635627321    3.54477650256084    1.84282994184711
C         0.28542404948912    2.48330061153459    0.99362630514766
C        -0.56030941859651    1.58058745492840    1.68251273541458
C        -1.17888956508065    0.39123491562490    1.28494707463939
C        -2.02074613481708   -0.25015561573349    2.16344660256989
C        -2.25391945204111    0.26761043279865    3.44245231458716
C        -1.64343074871162    1.42799488252725    3.86494363533159
C        -0.78611598626046    2.10403466993451    2.99428381289603
C        -0.06503497928997    3.33655513499943    3.12535555180292
H         1.20181345462916    3.61842028333346    7.36702969385792
H         2.29677109958990    2.25225820007245    7.14510343309379
H         0.76035681571349    2.29856736855530    6.26732027042195
H         5.38370050063946    3.35706693462338    6.28392211341569
H         5.28498517616278    2.17372793140402    4.97520157247004
H         4.29375262388292    1.97552537000084    6.42593391856775
H         5.87724331590784    5.18996879836765    4.39555258936449
H         5.21142790265382    5.59603122799163    2.81473805572572
H         5.69486621917801    3.93082822667075    3.17629691023435
H         1.96630022361167    7.26446285949163    3.71251367023292
H         2.02797816071144    6.40625475613947    2.18286171676760
H         3.51835390564910    6.97195189581347    2.93753123142038
H        -0.38335741852911    6.54686209167978    2.59257632394525
H        -0.60638385148621    7.22757402534720    4.19440612934298
H        -1.88922530211125    6.30378369486101    3.44425773030067
H        -1.18099586084204    3.55836360300569    6.39902416900247
H        -2.37631201275760    4.49609134083942    5.52708250327437
H        -1.23438370697073    5.30011071660314    6.58204403818356
H         3.86469095833643   -0.01343490498488    5.28370833228105
H         4.39881952811000   -0.33084805405385    3.62853399377067
H         3.62504351926951   -1.61364313276804    4.56616988725187
H         0.95228996783196   -0.55497080915052    2.17515808038891
H         1.79236297547396   -1.96976747102329    2.83246439602524
H         2.67169932616537   -0.80403629417686    1.83452398052952
H         0.21334709057830   -0.09388576843616    4.61337983148142
H         1.45471832092736    0.07918965518414    5.86588764994193
H         1.16184498755169   -1.50291352309870    5.12510677307777
H         3.14521677074969    1.34452797681961    0.58214624216858
H         4.18829831929505    1.16062786916455    2.02540611780426
H         6.09348525072024    1.98568228469321    0.82386253891813
H         5.17009130494465    1.55258483731592   -0.61395935639054
H         4.95031131615112    3.86389521138407   -1.07649132465610
H         5.75016951386646    4.24471836694695    0.45034636940199
H         3.55135743927328    4.97666663180990    1.03804017334762
H         2.79501001077334    3.80170942654651   -0.08655688466277
H         0.99116613848762    4.49408532440462    1.52348739241082
H         0.59003797219636    2.38716612159739   -0.03997256296919
H        -1.00852071131808   -0.00715890980538    0.29290437926087
H        -2.51656595381227   -1.16408048843875    1.86727917108258
H        -2.92900012270759   -0.25678469427001    4.10481159108942
H        -1.83809017127096    1.81977017535611    4.85405971397584

