37
CSD_code = MORBUQ | q = 0 | S = 0 | Stoichiometry = C14H21NiP | MND = 7
Ni        0.12519165338810    0.79872056254345    7.97297905210740
C        -0.23153442849757    0.53303323603999    9.95019088233441
C         0.77968300800696    1.52626201388836    9.81844839091506
C         1.87908814394383    0.97090881056816    9.14984306548754
C         1.68495319726358   -0.46177059101876    9.07264258230968
C         2.52074350058253   -1.50704922008329    8.68182462073788
C         2.06238402130118   -2.80340104497625    8.79998609603085
C         0.78636460336584   -3.07602031865847    9.29373113893125
C        -0.06436718066063   -2.06006158246159    9.67935493603512
C         0.37408152767394   -0.74073759274401    9.57247809598969
C        -1.44598032222301    0.65639521244747   10.82021878801271
C        -1.79076931617753    0.76856282974147    7.50871365818328
P         0.91576164683779    0.87053096507700    5.97268647015704
C         2.71707924262462    1.16072304402664    5.75205038357096
C         0.73200130804266   -0.73451576485792    5.10501714223521
C         0.25301980491082    2.03026126499471    4.71483125697450
H         0.70696987754999    2.53856780449882   10.18890720674330
H         2.82821712383995    1.46398331645796    8.98978575316044
H         3.51876154037327   -1.30620931018381    8.31296849072304
H         2.70440877392939   -3.62528359502354    8.51501267027964
H         0.46564545928063   -4.10426730978447    9.38194903765077
H        -1.04780046303533   -2.28289186206441   10.06871086236472
H        -1.19690875420071    0.32250518757604   11.83025920271463
H        -2.26299960131179    0.03936989374171   10.45317121483879
H        -1.78241025617236    1.68977147220921   10.87143902248442
H        -2.24411738809991   -0.16174505840666    7.87336821797917
H        -2.00176518804625    0.84193385229648    6.43732963337523
H        -2.27653056159904    1.61851219574881    8.00766950766244
H         2.97224574021647    2.15545329550669    6.11301565831147
H         2.98931792156441    1.07639335763111    4.70064774558959
H         3.27256107559283    0.42524348308967    6.32981693478660
H         1.21529394373892   -1.51014053604517    5.69657941536026
H         1.18098005623076   -0.69236128556816    4.11383693435644
H        -0.32526090237241   -0.97637952289773    5.02339357976192
H         0.41537927499728    3.05280406040526    5.04849856437724
H        -0.81595033249806    1.87324900361672    4.59796635306291
H         0.75136224964207    1.87464973267152    3.75917743440436

