76
CSD_code = MORCAX | q = 0 | S = 0 | Stoichiometry = C29H45NiP | MND = 7
Ni       11.33203222920594   11.74092350121867    1.95740383869053
C        11.75770810855907    9.78761302467049    1.54710013299799
C        11.29766391102813    9.86247649229267    2.88868904507413
C         9.98716751505081   10.35739110708884    2.89449870474186
C         9.50160104922436   10.37611184264175    1.53136169612748
C         8.24291649544529   10.60238520398510    0.97705986173240
C         8.08434964436079   10.47220968448080   -0.38814609452560
C         9.15561888824753   10.12363371290445   -1.20996976683005
C        10.41260707185588    9.89470089025387   -0.68701087775891
C        10.60045881573067   10.02037977636602    0.68843410182699
C        12.98793567800544    9.05286202665237    1.10930834604524
C        12.95367412271508   12.29342701003143    0.94590440069256
P        10.48605802559304   13.70717069945747    2.46632400765653
C         9.43777211006637   14.18785842089500    0.99748327830318
C         8.86307797069338   15.60061679401811    0.96003662338792
C         7.90365881044790   15.72929654055577   -0.22325749713543
C         8.62615659637449   15.42926975511600   -1.53302863321006
C         9.24587363192753   14.03514772039754   -1.49369963920070
C        10.18884261582186   13.90251383405363   -0.30260907654402
C        11.70743994562803   15.10747188884826    2.70162350221726
C        12.93918504995399   14.62483012798152    3.47428232906902
C        14.06388932630743   15.64716566034737    3.34777666075778
C        13.61139275970814   16.99223633361945    3.91033521136657
C        12.33100705405672   17.46059449794746    3.22472562149128
C        11.22780322651560   16.40756245149119    3.34664089423894
C         9.30817302939101   13.94442470041662    3.90405937869578
C         7.94780683286869   13.28633190954602    3.67827732962683
C         7.05632681646107   13.43883205290376    4.90934745803926
C         7.72244567751236   12.83695910539382    6.14090925988417
C         9.06461150664932   13.51662256135583    6.38405930040070
C         9.96641093935124   13.37406633882691    5.16178370714065
H        11.86624166472567    9.56307871342859    3.75746595507146
H         9.34844081845468   10.39282369718529    3.76591059525711
H         7.39860775000822   10.85520109979748    1.60541301402934
H         7.11005930041460   10.63069282101351   -0.82962713947156
H         8.99229316730438   10.02110396870435   -2.27328490919112
H        11.23349078801991    9.61241565138418   -1.33127315352513
H        13.37894738373720    9.44593747856465    0.17375820539535
H        12.73700806054431    8.00085027986663    0.95433654262538
H        13.76648296441737    9.11301509315174    1.86700139696252
H        13.06356763174274   13.37151277714751    0.80654304618989
H        12.93445272751600   11.83820834133165   -0.05162825699952
H        13.84538467417014   11.92365714662950    1.46920052255115
H         8.60755340696823   13.46988736472951    1.03702911331695
H         8.33210486180436   15.83293196839928    1.88547602803079
H         9.67178625172090   16.32233021528270    0.83268555642884
H         7.07563515828915   15.02754388895787   -0.09763104845739
H         7.48548205578186   16.73831072916558   -0.25073666793750
H         7.92704387666213   15.50488819122150   -2.36839163244653
H         9.41333580198054   16.17104347528063   -1.68840206214167
H         9.79044149801011   13.84283241886872   -2.42000714547593
H         8.45650905981392   13.28501851538148   -1.40987616811049
H        10.59832407720213   12.88633171804876   -0.26165147933387
H        11.02144023219526   14.60014623769677   -0.41667163401874
H        12.02724415299491   15.33202148700371    1.67512390134838
H        12.69223626816537   14.51001613404151    4.53096792776947
H        13.25329200901252   13.64758357410240    3.10263451685422
H        14.33672837527345   15.76199790987528    2.29649315987624
H        14.94759514402881   15.29893083433277    3.88587994267681
H        13.42791135435705   16.88962547408732    4.98262606373266
H        14.39711595378428   17.73877711415903    3.77749242019735
H        12.53408524012494   17.65032705957690    2.16802281152707
H        11.99406764613370   18.39838728392080    3.67249875611635
H        10.32034418336828   16.78323747091102    2.87567125244264
H        11.01958358179328   16.24295586564147    4.40549118896104
H         9.15275954777230   15.02064067946788    4.03518022573441
H         7.44319908186814   13.74060973653850    2.82417421384854
H         8.08800190098150   12.22717215339429    3.46399155974375
H         6.86210028827922   14.49995172736627    5.08753490685615
H         6.09582652834751   12.95141387911565    4.72665547011604
H         7.87827981722458   11.76685771426314    5.98593052651767
H         7.07639362840063   12.95670873831507    7.01324760925584
H         8.89849577255045   14.57720909285237    6.59170569821149
H         9.55542540597195   13.07915757494869    7.25628786073860
H        10.19632197671319   12.31859023914201    4.99453630228239
H        10.91159347661119   13.88538079995084    5.35031190144025

