70
CSD_code = MORDEC | q = 0 | S = 0 | Stoichiometry = C34H16BF15N2NiO | MND = 5
Ni        6.69829924845740    7.80437750499756    4.15235408563745
O         3.55609022078473    5.67719695243778    4.28624784197803
N         5.34805505551628    8.38056187998253    2.84685752640428
B         3.77596298707744    4.44858154784222    3.41676901250572
N         5.24356796006086    6.96618094575842    5.14418815637223
C         5.31017211689370    6.13254418108669    6.28347776319035
C         6.40611342981391    5.29552300391822    6.46976320743736
C         6.49483090194024    4.52027459496146    7.61018341644360
C         5.48978889977212    4.56444613979321    8.56344151235292
C         4.38534927305729    5.37458384554927    8.36136913088325
C         4.28953439885123    6.15870636373585    7.22596034975235
C         5.32171537356330    9.22528863021629    1.81990168784521
C         4.21219180243707    9.37396116584572    1.00305557466885
C         3.07750433969791    8.62037325333101    1.26282553951497
C         3.09857006963704    7.73722755523515    2.32826524923393
C         4.25347547565130    7.64340099330548    3.09443750521570
C         4.34861550597646    6.69992090827305    4.24446017404223
C         2.33381606201233    3.71639747433767    3.20217636757825
F         1.03097344818165    5.62328296050639    3.73790237662091
C         1.10328517022276    4.32029893906019    3.42566085065119
F        -1.25933073208082    4.28338560671504    3.53614202024986
C        -0.10593612860867    3.64119186389062    3.31284813164928
F        -1.26819497980820    1.63366565959353    2.84933895052700
C        -0.11545214611567    2.29900850070689    2.96055288863442
F         1.11271554281536    0.37046573640586    2.36722267649155
C         1.09517502698972    1.66130843970741    2.71701172996094
F         3.42357214264409    1.71226976725176    2.58306504511861
C         2.28109119840903    2.37261121155452    2.84257387544327
C         4.50049779398711    4.89857005016533    2.00008357097480
F         2.61818225765449    4.32337453802186    0.67100590587557
C         3.86179308168025    4.81151944398819    0.76516872684372
F         3.73792555852999    5.15706634411550   -1.56983774926014
C         4.42676230856434    5.25365667977768   -0.42996376784231
F         6.23151649830238    6.29801658583430   -1.55842783001021
C         5.68933410888270    5.83037893138212   -0.43228441214670
F         7.55793084339972    6.53641385543879    0.84332453545515
C         6.35920082945473    5.94020915781409    0.77720859368404
F         6.51193024027476    5.68262234135602    3.06823376092165
C         5.76800894217142    5.47405350037685    1.94359730279508
C         4.67624719061267    3.40587013811815    4.31954118282715
F         6.43747257096519    3.03089518492799    2.77113840276479
C         5.87554685210904    2.79988170300062    3.96979153621836
F         7.72640746835052    1.39862553787403    4.43102444047357
C         6.55593784005394    1.92532305587312    4.81225945543624
F         6.67049394020254    0.77675071993164    6.87745904492442
C         6.02297884497677    1.60539850982345    6.05269565624643
F         4.26412349369432    1.85386128801139    7.60820586781340
C         4.80679834731325    2.16399386769920    6.42496282429459
F         2.98847029170766    3.54258458704462    5.97082161494360
C         4.16368625380236    3.04361857768980    5.56371437372944
C         8.11651096269998    7.91440731093992    5.56096294308972
C         8.72988339656240    7.75788283034898    4.31199472170135
C         8.25880478059045    8.64743725068503    3.32104613586050
C         9.61451026332200    6.59633104632471    3.97778736045457
H         7.16821675254183    5.24677460625410    5.70402325534356
H         7.34971284901101    3.87571821551048    7.75415128267401
H         5.56102070022845    3.95711211734361    9.45229505776581
H         3.58949907858057    5.39392970579646    9.08959873080657
H         3.43108140818002    6.79196012470510    7.06264706121122
H         6.21767686981514    9.80241388722534    1.63702135124995
H         4.24126568773835   10.07181862533321    0.18181787326622
H         2.19527379022011    8.71841446844716    0.64956301108629
H         2.24585080319366    7.13237260315745    2.58448142233057
H         7.81722883125163    8.91371979729800    5.89376076943067
H         8.32772599529274    7.21553572064480    6.36100594309750
H         8.57619830255411    8.49145345019807    2.29450848640953
H         8.08090870671156    9.69063555907058    3.59660737708073
H         9.53523736277546    5.80486668260576    4.71822079739473
H        10.64683410082064    6.94633049032067    3.96009375057793
H         9.38206213731162    6.19346528356256    2.99483698571821

