75
CSD_code = MORJUA | q = 0 | S = 0 | Stoichiometry = C28H38Cl2N4O2Pd | MND = 4
C        14.50616109712288    6.46268963472403    9.15335237183463
C        15.27659958029219    5.31798218932367    9.39203208287825
C        16.38816823893549    5.43928724334346   10.21331873140764
H        16.99956458123010    4.57470224809020   10.41428389798378
C        16.74123673304529    6.65599209832254   10.77160698879121
H        17.63336126342712    6.73082202204891   11.37451492837541
C        15.93560370362801    7.76492860218807   10.59176381827108
H        16.19878864682667    8.70881108373128   11.04350072340489
C        14.79152767945484    7.67097641255000    9.81250690879174
C        14.81146290402395    3.99185284784971    8.83472334469435
H        14.40077869147837    4.15493845080441    7.83169560545378
C        15.91963145215606    2.94791857583573    8.72039198607341
H        16.77747899591982    3.34855533110817    8.18413735018544
H        15.54915249387069    2.08262636817292    8.17511968439094
H        16.24263173647760    2.60973571132307    9.70160481329270
C        13.67840266859840    3.48063708047102    9.73271202770098
H        14.03478110780819    3.35302710487546   10.75228265113588
H        13.31156403873875    2.52267099508442    9.36933146416217
H        12.85443805954330    4.19876032241916    9.75435067397335
C        13.81476986463750    8.79003284770547    9.62510242359535
C        13.65781041674043    9.17367761060830   12.07620015379854
H        14.13750561675096    8.20392911958848   12.17038662308478
H        12.69974237706716    9.11949816625208   12.59533258137605
H        14.27607207941825    9.94262817092406   12.54819243860516
C        12.35828994030802   10.46432102144658   10.46164846941726
H        12.35389815743879   11.19636189992301   11.26547499369607
H        11.38982816769099    9.94950764416251   10.42301135455387
H        12.52714637868558   10.95983535857883    9.50663174626381
C        13.51750227855261    6.50510041728745    7.00527249641353
C        14.82617462538678    6.44771546820928    6.28234772731175
H        15.64763512515462    6.29422240918975    6.97766962303802
H        14.98998371364590    7.38843057420646    5.75758099722792
H        14.81948408701556    5.64192528991734    5.54938544099543
C        12.28435809877733    6.73441695599572    6.28737458376280
C        12.20211989007457    6.69306755611876    4.79828180415145
H        11.43669961888014    7.38294137006098    4.44627364508259
H        11.89948531658726    5.69141466726779    4.48271316064842
H        13.15378241354477    6.93582236840273    4.33700287819015
C         9.98398953660622    7.22855943211232    6.52293525139542
C         9.42990522806635    8.51310802253440    6.47327708464678
C         8.13622303134965    8.63935050720066    5.98608673327440
H         7.68685092136471    9.61763332070137    5.92705774478286
C         7.40687562062608    7.53808120573591    5.57407589967821
H         6.40259257421237    7.66733807864802    5.20011185003801
C         7.95657753075843    6.27025296854706    5.64403476423017
H         7.39405403040186    5.40392890665611    5.33030335470716
C         9.24520953686762    6.10750154456056    6.12515376380214
C        10.25151058830756    9.70716084581729    6.89837603059935
H        11.06911615124090    9.35230440275956    7.54482409642787
C        10.87350415096074   10.37615505365603    5.66903006579881
H        11.52924004513782    9.68812565052321    5.14026224873467
H        11.46319742089033   11.23652348594030    5.97537390673248
H        10.09709955586668   10.71185436399224    4.98352864093193
C         9.42926875464058   10.71553001735814    7.69952055684743
H         8.68114553073071   11.20503097486931    7.08068092098276
H        10.08623439945768   11.48248265344813    8.10337295187550
H         8.93410230453434   10.21197865156309    8.52542293794486
C         9.88950453853814    4.74930358079243    6.16076783073036
C        10.49934792294292    2.80075534833440    7.44245182790568
H        10.93545548217597    2.55024751229698    6.47712939845794
H         9.76250873414133    2.04206190054734    7.71517378351777
H        11.27932552358387    2.82989835194961    8.20553442228784
C         9.27380209330916    4.58929944769376    8.55385020145005
H         8.69530240783133    5.49363076674420    8.36764210711967
H        10.05724859901385    4.81029042024531    9.30325735176860
H         8.61079528686466    3.82782556821917    8.97191590258738
Cl       12.06597257431281    6.52470520592035   11.13778369791992
Cl        9.63044793998078    7.78515723575639    9.63544375601695
N        13.39696917754945    6.44706693885446    8.29458498645566
N        13.42234631809079    9.50462793232242   10.69155757474400
N        11.26972167382679    7.02302629120939    7.04141099567188
N         9.86829942110240    4.09558878892393    7.33555411844300
O        13.37061675507564    9.04357588008162    8.49625196074030
O        10.41624187860360    4.28030251728288    5.15912791746863
Pd       11.60737492223029    6.94667298809869    8.97312016927358

