65
CSD_code = MORKIO | q = 1 | S = 0 | Stoichiometry = C26H35IrOPS(1+) | MND = 8
Ir        3.28082898090280    1.60730978431094    3.44802240943234
S         3.56250391812114    2.25078386444033    1.07113853308177
P         3.21122301098360    3.96830586735641    3.79820544333432
O         0.41626838339221    1.67051153915604    2.53241276522636
C         2.66859036629171    4.61746369669348   -0.16809617509543
H         1.88993919591989    4.11103678429019   -0.74290719892999
H         3.54089594532108    4.70282918903362   -0.82009398684425
C         2.98518327912600    3.87098274367281    1.08740794676256
C         2.75497893637640    4.63972410194449    2.19324531802160
C         2.26103587715322    5.94385610155034    1.76359647981069
C         1.85957555606077    7.07109361763152    2.46580460181529
H         1.86951695481109    7.09889415160537    3.54378574963927
C         1.43216143798275    8.18194879327382    1.75713839561965
H         1.11974979461068    9.06336462327307    2.29579480658019
C         1.39868888481399    8.17931168217293    0.37128683669451
H         1.06303689780605    9.05741148857429   -0.15746279799980
C         1.78877221675912    7.05356389280189   -0.34025511071240
H         1.75827797532968    7.04592183700552   -1.41897755615688
C         2.21267109836273    5.94373973891959    0.35763383576280
C         1.47192826567868    1.70160252916454    2.96173841605214
C         2.03197918438582    4.62672218660619    5.06540127184316
H         2.17694529832426    5.71039504335539    5.09110036342127
C         2.36194858375647    4.03678010956160    6.43130756683556
H         1.68177377141243    4.43210232969920    7.18230862765139
H         3.37832183308594    4.27975889880489    6.73481379028873
H         2.24782456844425    2.95501497175878    6.40310689222172
C         0.59333368993462    4.32801357313314    4.66444338798816
H        -0.09186793015360    4.84333924341096    5.33376414649697
H         0.39181501000333    3.26080446704977    4.73314154937197
H         0.39122312860273    4.66086727664533    3.64799278997150
C         4.86639308427848    4.73337354473460    4.18445419526012
H         5.23763591141721    4.23396632299660    5.08482379735969
C         4.77864989605603    6.23448663941469    4.44156206415582
H         4.24003016330161    6.46226429568325    5.35789585046328
H         4.30120690046500    6.74314693775438    3.60704032814111
H         5.78612865919416    6.63359055320050    4.54406308403177
C         5.80772942391906    4.44646787902442    3.01755232102433
H         6.82981486670416    4.70691129688164    3.28373412304319
H         5.52238498588990    5.03913086363964    2.15074001093448
H         5.77772411272540    3.39651334229994    2.73160299452610
C         5.22961338984085    0.46043371640108    3.43265168478328
C         4.12868642389633   -0.42892098680688    3.11473719862560
C         3.29539406710095   -0.52787813106230    4.26264931929241
C         3.81929018715662    0.35764363497035    5.26529774312680
C         5.04544924887578    0.93275303603543    4.75020166157874
C         6.44653380981479    0.60032613541172    2.58140636994263
H         6.98410074802053   -0.34896390705293    2.57405675791429
H         7.11829839091760    1.36640981249085    2.95928865843155
H         6.18564600434049    0.83827100226646    1.55097375030401
C         4.06366163489995   -1.27834541964168    1.89426360582212
H         4.73359416048188   -2.13175003473618    2.01224578263449
H         4.37920315638714   -0.72378564753510    1.01290399076428
H         3.05893634991039   -1.65680942937708    1.72530986188286
C         2.18136708334451   -1.49901898050625    4.46499177179720
H         2.58733374431523   -2.42096383028739    4.88442491403727
H         1.69036685754036   -1.74566322735679    3.52709817104133
H         1.43639421087738   -1.11573622057652    5.15790760679369
C         3.40446971674253    0.35514007953429    6.69862059626600
H         3.83815080214520   -0.51906682302026    7.18813006607495
H         2.32382467776387    0.28827613953424    6.80386581739999
H         3.75612540070803    1.23927264543987    7.22340528739168
C         6.06153795686479    1.63945982366567    5.58628050261134
H         6.68133764362373    0.89315121748588    6.08666579232921
H         5.59477007267117    2.24951467936741    6.35626386702890
H         6.71519214422782    2.26574491284498    4.98479135499944

