80
CSD_code = MORKEL | q = 0 | S = 0 | Stoichiometry = C30H43N3O3Pd | MND = 4
C         4.09948037030974    4.20991034440632    4.93028188924364
H         4.65593402048621    3.59545521833513    5.64727055151340
H         3.25796628640133    4.66968303497349    5.46188345840157
H         4.75489092941102    4.99934887010965    4.55196362611208
C         4.10523481997934    2.76602497337150    0.86634313393709
C         4.89844219997326    2.99614592438005   -0.38660463092406
H         5.75847219129553    3.63054843665425   -0.18402834275436
H         4.28505959777247    3.48544757546442   -1.14399739349346
H         5.23810671968704    2.04702204899871   -0.79749393393183
C         3.04150290139499    1.77991020383371    0.86973830342261
C         2.68160639667798    1.03581841402479   -0.37686019816027
H         3.40058133623742    0.23921878777159   -0.56644539528288
H         2.67541659884428    1.70109234208078   -1.23793269384935
H         1.70208917644239    0.57346413088147   -0.27047505056347
C         5.26823745023344    4.44795173673896    2.03873197246758
C         4.93779780122459    5.72975721837538    1.56900669316860
C         5.89096827911956    6.73048169905138    1.67765594476047
H         5.66374030504245    7.72754250416364    1.33778644325742
C         7.13942103098563    6.46967048575450    2.21311127575912
H         7.87408122313263    7.25868494500531    2.27052030119147
C         7.44251786166516    5.20898174543651    2.69081434041294
H         8.41335691302412    5.02571493420701    3.12196233719979
C         6.51159846746751    4.18219549520656    2.63036770953993
C         3.54551896385889    6.00285972006331    1.03967973223513
H         3.19599962824115    5.11417180289984    0.50283681312365
C         3.48762039063652    7.17911684003218    0.06570212607881
H         3.62855616959579    8.12465368738678    0.58269084829618
H         2.51246607434076    7.20625107764691   -0.41604675463184
H         4.24899279247266    7.08268949949197   -0.70548989278905
C         2.59262320158270    6.24087663214233    2.21835164194904
H         2.54879990660549    5.35508898320586    2.86782149139724
H         1.59132790694738    6.45322255006695    1.85019652250215
H         2.93351710501442    7.08679854058288    2.81068619585292
C         6.81372199947032    2.80687200063130    3.18566616187525
H         5.85560088603765    2.30806302787602    3.43204663297987
C         7.63377058330980    2.87036125862072    4.47513591823936
H         8.66744093713034    3.14571899779733    4.27810254995499
H         7.63063673919331    1.89432446598455    4.95403127837878
H         7.20212446600211    3.59131765725817    5.16404966518185
C         7.55346752453865    1.96909768561260    2.13819790095198
H         6.93876835606767    1.81147565299044    1.25487861969712
H         7.82006022574570    1.00054116358286    2.55503492876924
H         8.46848107888231    2.47374621065264    1.83156325445898
C         2.62076361634858    1.10259514307176    5.33444550505315
C         1.85122262792316    0.19388583898740    6.27803078627775
H         1.15320140227448   -0.39877814129850    5.68763962035181
H         1.28944026799310    0.78939406446852    6.99167193859820
H         2.53564159164601   -0.47518795574298    6.79115622327462
C         1.39463537047364    0.76612848359455    2.27482473688873
C         1.60412384703244   -0.61870725374703    2.20210919205651
C         0.58136172853149   -1.48523779103280    2.55584973286433
H         0.75339899334751   -2.54825982576555    2.48217045984969
C        -0.62945457585026   -0.98725715000401    2.99839660138059
H        -1.42181061247942   -1.66453403795196    3.27974974061818
C        -0.82929748315255    0.38142549927109    3.08333893561572
H        -1.78114267124900    0.74858815291805    3.43184579889841
C         0.16456203158798    1.27923441380686    2.72852757808080
C        -0.03706353440561    2.77757881527869    2.75725912201825
H         0.92367893820652    3.24584180428553    3.06251274672922
C        -0.38680930506716    3.27838284379301    1.35088757385808
H         0.40057683611377    3.03400728658245    0.64046185290538
H        -0.51829171953938    4.35812579089880    1.35969115444352
H        -1.31328089491331    2.82022438199683    1.00823826972147
C        -1.09394683196044    3.22793205982233    3.76190604656829
H        -2.09362437109201    2.92960803567407    3.45284897830166
H        -1.07790500571249    4.31251315027141    3.84399489942703
H        -0.87895353627113    2.80976792421377    4.74175224767248
C         2.91372608458667   -1.19671487050925    1.75176390401076
C         5.30095711837870   -1.29146723207710    2.19962576089897
H         5.23446320002037   -2.01132459080488    1.38429180348669
H         5.69112979753867   -1.78533410777372    3.09016856145724
H         5.97804217717730   -0.48317202253679    1.91892162880821
H         3.86308103746100   -0.21540110835862    3.30020901412371
N         4.30917178997857    3.42242707765737    1.97002484378553
N         2.41880582827065    1.65745363071656    1.99252933122179
N         3.97963337611429   -0.77078293010048    2.44971994508551
O         2.12831333750250    2.23355872468641    5.08858024942943
O         3.68557466191005    0.70370071293837    4.82214530043283
O         2.98003631111467   -1.97715117284616    0.81472434513012
Pd        3.30764075760890    2.91271783194445    3.53254959477400

