64
CSD_code = MORKAG | q = 0 | S = 0 | Stoichiometry = C25H35ClIrPS | MND = 8
Ir        0.63456878245795    5.66912809868495    1.21315641138357
Cl       -0.27324149400391    5.18508794755416    3.32140505024478
S         2.82802236813649    5.52185811491360    2.24407856032101
P         0.88312444962163    3.39024622102852    0.90402082586849
C         4.14413382724891    3.26214422037345    3.29643945102412
H         5.12182455732855    3.56085079124153    2.91228368609766
H         4.08508120283216    3.59888796927432    4.33371452310575
C         3.02822766459313    3.84405135834814    2.48337177542966
C         2.23028627218054    2.85761805009171    1.96606486387317
C         2.74959882136502    1.56747602016295    2.38241278832897
C         2.32269066976943    0.26759797625821    2.14679181775326
H         1.43846690190704    0.06637857866064    1.56183375675392
C         3.04551137082000   -0.78408961625764    2.68599161936076
H         2.71809516668848   -1.79814511446875    2.50638431608689
C         4.17740673857808   -0.55773971464454    3.45221146372567
H         4.72463370355960   -1.39357305920684    3.86194541589540
C         4.60878279724269    0.73922130248363    3.70079630621918
H         5.48758938137076    0.91904351525009    4.30312667763197
C         3.89629937498804    1.79001329276686    3.16929029260155
C        -1.09429687503517    7.02398557801100    0.65069272876558
C        -0.59235896023274    6.47482759169132   -0.56096335216158
C         0.78360490441314    6.87092077334479   -0.68731236385409
C         1.09544124922834    7.72930744746655    0.42041129422914
C        -0.04330678849596    7.79248713157044    1.26231692705629
C        -2.49797818017243    6.98500490465901    1.15796037678063
H        -2.93542656385491    7.98329066340220    1.10649344926178
H        -2.51553813372091    6.66461098876407    2.19936071902839
H        -3.11493055390067    6.30552393157761    0.57518619923901
C        -1.39642292781456    5.82000901905495   -1.63810072353119
H        -2.28531370241684    5.34057592992802   -1.23638179498432
H        -0.81296666166462    5.07451383700454   -2.17459969470637
H        -1.71320404038507    6.57648652875212   -2.35928910547744
C         1.59849451815249    6.74687074431080   -1.93538738667525
H         1.36560028337203    7.57660052544858   -2.60652617167361
H         1.38279869910852    5.81932463498678   -2.45992766781426
H         2.66336750669721    6.78072588544541   -1.71782677379681
C         2.35492560207120    8.51467568758135    0.58044246668839
H         2.59891858738736    8.65375827518452    1.63108544044615
H         2.23404272955916    9.49745111139846    0.12053834345174
H         3.19409063428348    8.01315657472865    0.10452685360832
C        -0.22886736028553    8.65353685185179    2.46812918113803
H         0.72433826018293    9.02966016604966    2.83070794742666
H        -0.70326603717888    8.08855034200596    3.26935141295650
H        -0.86996271654704    9.50325929614208    2.22565817287611
C        -0.53531936517504    2.21965042029101    1.18309194318892
H        -0.26690170131504    1.27579275021200    0.69705185565291
C        -0.78039048165196    1.95655587946601    2.66369362910543
H         0.11136869951146    1.56004441248899    3.14295403312856
H        -1.58640980019790    1.23323280967151    2.77850724377099
H        -1.05954466901422    2.87465754604477    3.17173805079228
C        -1.77441721498179    2.80239153461446    0.51249290215195
H        -1.60728428364045    2.95129400202660   -0.55319391285398
H        -2.01273528322403    3.76031939246809    0.97139797210883
H        -2.62597405005255    2.13625909207460    0.63965405308241
C         1.48499740732827    2.99758563226935   -0.82918801122591
H         0.80677299834113    3.53457358505884   -1.50224502963695
C         2.88739308173532    3.58605492415690   -0.96171908077983
H         2.92404533092601    4.59151813235004   -0.54574070767889
H         3.19349475008886    3.62603815239324   -2.00557909743797
H         3.60055018786852    2.97079269793192   -0.41680334963137
C         1.50072138535730    1.52377358543101   -1.21596285001357
H         0.49789053281755    1.10981286437803   -1.28965189373893
H         2.07713996483483    0.94679012011418   -0.49703350904990
H         1.97531648099114    1.41579209350821   -2.19093032097179

