128
CSD_code = MORMAJ | q = 0 | S = 0 | Stoichiometry = C54H68N3OSY | MND = 5
Y         1.97127250421818    5.82320295451451   14.05847587796138
N         1.18345184010976    4.20698669843988   15.46764993879806
N         3.97234306400196    5.30405418134142   14.89651948902188
N         1.30879318470445    7.81997066975401   14.42358481426622
O         0.06774731842699    5.03080650869754   12.41076111092900
S         2.63838409352046    6.85294871751253   11.83740709660520
C         3.09874043112689    4.34289881266097   16.93113120658325
H         3.40484607199942    4.08162179232681   17.93506790930080
C         1.78703121498033    3.96649121050974   16.62179360850352
C         1.07399563159427    3.20967465881449   17.72314336949260
H         0.22753929337604    2.64771253526252   17.33608328071065
H         0.70958059377486    3.91878905695122   18.46660584154130
H         1.75439581291476    2.52515519212848   18.22455832159188
C        -0.06409852342232    3.58706399005669   15.18283721773630
C        -1.27822020428917    4.10967059126554   15.65650334740853
C        -2.46807046980383    3.49076444068786   15.29429616963586
H        -3.40512500282279    3.89410741399797   15.64737908946969
C        -2.47432753937487    2.36140049273147   14.50243915251378
H        -3.40755551361221    1.88526174838162   14.24004997494769
C        -1.27672701815313    1.83879726778145   14.05099125298822
H        -1.29521483997561    0.94791696529214   13.44434100419256
C        -0.06707889741907    2.43570164428945   14.37057816306691
C        -1.34072454088517    5.33448948983270   16.54086539245368
H        -0.32377211500969    5.61173606715851   16.83273822063896
C        -2.13741319945209    5.06608195667050   17.82148228331159
H        -2.00676342908013    5.89074603175473   18.51947775819468
H        -1.80019279793699    4.15153294197890   18.30402346444655
H        -3.19911415783513    4.96769133337201   17.60978035694155
C        -1.95209754383349    6.50810033331718   15.77061510333330
H        -1.30282315304908    6.79627451418526   14.94499031888020
H        -2.08337339861450    7.36431374667213   16.42961894857832
H        -2.92697160729973    6.24194483881002   15.36724608579445
C         1.24015461553986    1.85559000154712   13.87350725782958
H         1.90099176332455    2.70116886204156   13.62493114115700
C         1.91788671557020    1.02985242862496   14.97342180104902
H         2.20302011415641    1.65479645327909   15.81383873018638
H         2.81564648141489    0.55501410165307   14.58231144313312
H         1.24378821966701    0.25263815054194   15.32943848237706
C         1.08064790840217    0.98013110682433   12.62937474373006
H         0.48479169099851    1.47399199803348   11.86554134157631
H         0.61113821156284    0.03139755308188   12.88065974787420
H         2.05866973608544    0.75729462530806   12.20728953362386
C         4.12922644742128    4.85194484517919   16.12859004436870
C         5.51128879389289    4.78275220247718   16.73810038669918
H         6.16885700662322    5.53755130532179   16.31454679635979
H         5.94823550102989    3.80673794856177   16.52675418951872
H         5.46299144900624    4.90558790763588   17.81709288329347
C         5.15065799218622    5.55253761234191   14.12818395367805
C         5.77993819052648    4.46708880979855   13.49699936683420
C         6.96647398298378    4.67444314844753   12.81165714712383
H         7.45272674879860    3.84658687598579   12.31973236366821
C         7.54024126365796    5.92959442263090   12.75305527162696
H         8.48032426358788    6.07377880762420   12.24166804775192
C         6.88602590578364    7.00421765445686   13.32010243816391
H         7.32059354845539    7.98789999060286   13.23729482181273
C         5.68094948944802    6.84439846741897   13.99153561184936
C         5.09825571626328    3.11845507116826   13.44520696178932
H         4.36396336796274    3.05690172016561   14.25589026110854
C         6.05716846104573    1.93819106819046   13.59677976570492
H         5.49251358242826    1.01489183444885   13.71269512260747
H         6.68874852645761    2.06625697179706   14.47340478514339
H         6.69615474036708    1.83023619024760   12.72432041868559
C         4.35240066778433    3.05084774517880   12.10689875491497
H         3.63889681490302    3.87826946073702   12.03236656749680
H         3.82185795258729    2.10659616281601   12.00686825182563
H         5.05567068041812    3.14062715531544   11.28169136403931
C         4.96383187159430    8.05928248936605   14.53631175148371
H         3.92321301821623    7.76882086944974   14.74698396942610
C         5.61898219511165    8.55247476053177   15.83020655799740
H         5.55046493319895    7.80058976821293   16.61450386597807
H         5.13019750238309    9.46017115489975   16.18001427687793
H         6.67063363690899    8.77648266080999   15.66120114106752
C         4.91235641621475    9.17976043936445   13.49435281398833
H         4.52884496707448    8.78960633161359   12.55455697055962
H         5.89327966069987    9.61542393411690   13.32242598389553
H         4.24695791644934    9.97211223027537   13.82995684708476
C         0.73626450026944    8.32987540277289   13.27872709127431
C         1.25348953032288    7.94783556324729   12.00214308586713
C         0.69143951935416    8.43971078595340   10.83585658574223
H         1.12860773206154    8.13600540937434    9.89521453345126
C        -0.38992527466172    9.30440276223757   10.86297105432369
H        -0.81173074320551    9.67864073125059    9.94212680768316
C        -0.91533654736414    9.68004875885148   12.08670701325011
H        -1.76384888905545   10.34855618064105   12.13362646080576
C        -0.36374190881674    9.20767009505727   13.26225912161974
H        -0.81524382202452    9.50955354882246   14.19540177248798
C         1.09549283340215    8.54152874574359   15.67344593956571
H         0.02192715168021    8.62839934805690   15.90676552630910
C         1.68380340540627    9.97280610343802   15.58515369041207
H         2.77146879881634    9.89977472496609   15.57748077104503
H         1.36912316366345   10.40179462103246   14.63008400645982
C         1.23743812861306   10.86423108689211   16.70386320913364
C        -0.09905442495014   11.22589863052148   16.83396363118857
H        -0.81945355305665   10.88280897397443   16.10513543723238
C        -0.51991837211346   12.02742310726627   17.87816480877395
H        -1.56366053623594   12.29417726725419   17.96472183610270
C         0.39268109825832   12.49265362664995   18.80890077924455
H         0.06505275378685   13.11713189854436   19.62691068081958
C         1.72900490678231   12.16000895624940   18.67773238366532
H         2.45028342985618   12.52772326853457   19.39316063974002
C         2.14512022287615   11.35498448937508   17.63348154852604
H         3.19188433646335   11.10256663825943   17.54053620491495
C         1.76727953085416    7.76297124706202   16.82277310240627
H         1.41328147054521    6.72351387523584   16.78284606970419
H         2.84815133840390    7.75069913793750   16.65814265032844
C         1.49506758352292    8.30174549476586   18.19922544222872
C         2.55042941377428    8.61108625597453   19.04778290745080
H         3.56643232261943    8.47396059965121   18.70464058956469
C         2.31939700933792    9.09719140345002   20.32180529138137
H         3.15342267567672    9.33744219416385   20.96519820219608
C         1.02369728814894    9.28137704107054   20.76997806920039
H         0.83998459789056    9.66941853840800   21.76083510373236
C        -0.03647613174421    8.95948172599703   19.94084315080440
H        -1.05171805823210    9.09248285844846   20.28592651787714
C         0.19883681061592    8.46549187761002   18.67160851537597
H        -0.63756066076158    8.21050130155879   18.03834237054009
C         0.41942948083343    4.46886842272612   11.13649207978861
H         0.95438087498375    5.22201438410331   10.54246082410002
H         1.08065120684461    3.61828238982953   11.31520814440417
C        -0.90024087473215    4.09810151723608   10.47659123847763
H        -1.29137178982578    3.17117356416759   10.89952240678757
H        -0.81013810524160    3.99497589939294    9.39847704406387
C        -1.76594323455627    5.27944209167309   10.90062293878682
H        -1.55752139717348    6.14382594711633   10.26995096727126
H        -2.83132504070821    5.06503384990064   10.87103872095764
C        -1.27504680893899    5.53872054257084   12.32454273036438
H        -1.27591673200277    6.60686423250076   12.56420204838405
H        -1.87926598133427    4.99602078722376   13.06090910743035

