79
CSD_code = MORNAJ | q = 0 | S = 0 | Stoichiometry = C36H39IP2Ru | MND = 8
I        -0.53556413600338    9.47035306093622    6.26706272304330
Ru       -0.60962547553099   11.99901698452027    5.29700174681273
P        -2.73051959851302   12.09112806337158    6.07693252247143
C        -2.78878030773538   11.74920410771779    7.91325519926985
C        -1.43808960748809   12.03183229473806    8.58175014279437
P        -0.18787537896553   12.73534871559124    7.39258271194931
C        -0.25953669821184   14.52524614299409    7.73850563255144
C         0.87260548152247   15.28093685011669    7.44114420320669
C         0.86108727620032   16.65430469405839    7.59095257130104
C        -0.28792877156899   17.29113454319374    8.03329095391144
C        -1.41839921559990   16.54803508483282    8.32824338826170
C        -1.40866958872794   15.17283070707716    8.17830126490918
C         1.35144990399393   12.33319505407429    8.28349424613810
C         2.29162857587015   11.50576279174057    7.68593037517433
C         3.45929547596514   11.18059149218718    8.35278789961604
C         3.69130657701642   11.68501924153917    9.62056616790054
C         2.75648957235522   12.51507633635183   10.22111938279150
C         1.59008909166992   12.84199787554795    9.55755654132069
C        -3.64170084066336   13.67582887315936    6.04018316427861
C        -2.97695495533432   14.83172951564835    5.65964747798256
C        -3.63165980494551   16.05085325343316    5.65654267043712
C        -4.95869924729179   16.11828740113067    6.04322581665373
C        -5.62729658945503   14.96750043843146    6.43508493020431
C        -4.97488757995040   13.74965070369353    6.43536744170781
C        -3.99895652573459   10.98797023479247    5.37060983704193
C        -4.16255567090323    9.66371040144521    5.76617850988719
C        -5.05120668153449    8.84161924679601    5.09637712435462
C        -5.77682201337635    9.32200467874468    4.01986738430735
C        -5.61090042174269   10.63569071894862    3.61093544009239
C        -4.72583050914350   11.46041622834106    4.27735447299989
C        -0.96361880642344   12.79612400564689    3.22393812031145
C        -0.51775765745851   11.44365346299694    3.15630350939647
C         0.83587008883602   11.40271092684387    3.65434159803284
C         1.18566495122067   12.70113728044108    4.09799485934448
C         0.06323998305055   13.57277314839732    3.85261098426796
C         0.16392667636816   15.07047717277660    3.85386502745258
C         2.56777782374249   13.17854616376035    4.43228599960793
C         1.77551015233550   10.24724555580564    3.50146621458835
C        -1.19385480302658   10.32309335868942    2.42300556256198
C        -2.16477545898318   13.35365344551623    2.52213636843248
H        -3.58553097554389   12.36540069061340    8.34283842915721
H        -3.06561234549400   10.70052866612768    8.05244905941030
H        -1.53822299212087   12.70293978858400    9.44006117797633
H        -0.98948771558736   11.09878233848701    8.94231548335735
H         1.77006081249351   14.77227002575346    7.11080610487072
H         1.74652619574688   17.23064720473484    7.36298466033568
H        -0.29975197856325   18.36483661638925    8.14973086161996
H        -2.31578683916174   17.04089219275492    8.67389086639128
H        -2.30103612453205   14.60626481970690    8.40346803488220
H         2.09333081026853   11.10684306847216    6.70005049802450
H         4.18470770899726   10.53033715615971    7.88621537945154
H         4.60096606313493   11.43190261201062   10.14508303871485
H         2.93973445289529   12.90752154351671   11.21110747879220
H         0.86295532895700   13.49687198151991   10.01934855804273
H        -1.93397414465162   14.76213982271935    5.38291776625293
H        -3.10427881925865   16.94613087194123    5.35924745211274
H        -5.47518702715726   17.06702954473197    6.04267090519772
H        -6.66226774862456   15.02254514115232    6.74055022892261
H        -5.49720605219363   12.84936188314433    6.73281021920426
H        -3.58946202196005    9.25628108481780    6.58484126200591
H        -5.16805660341792    7.81654508053476    5.41488988779179
H        -6.46559250907241    8.67544213840462    3.49638038631369
H        -6.17034886015923   11.01747477892948    2.76840477596552
H        -4.60275386034746   12.48756245231345    3.96010532875785
H         0.42673937716885   15.46352794555871    4.83800729656548
H        -0.76964125611562   15.52963653864153    3.53450874052264
H         0.94715774043511   15.37585474126909    3.15558435093475
H         2.53779513835286   14.05450737269150    5.07770962968426
H         3.08201287560982   13.45738703292920    3.50840149287383
H         3.15795324487890   12.40804845255333    4.92502761792119
H         2.58017606981575   10.28553641801359    4.23426126526133
H         2.22151386019409   10.28229824289743    2.50439535835188
H         1.26315356840674    9.29330362515884    3.61077053959630
H        -0.91946599814042    9.35815787370371    2.84739102564339
H        -0.89709239927455   10.33022746675960    1.37120252535375
H        -2.27898487919819   10.41451715493527    2.47603772370663
H        -2.67443734079835   14.11331774042653    3.11487360872292
H        -1.84275760851038   13.81585294979402    1.58533051688567
H        -2.87572243326656   12.56578468510489    2.28233027707221

