53
CSD_code = MORSOB | q = 0 | S = 0 | Stoichiometry = C20H24BrF5NPPd | MND = 4
Pd        0.33206640865213   10.84079883500923   10.58024805432459
Br       -1.25497328047765   12.29473368307451   11.68709467347961
P        -0.53846678170906    9.10775808452232   11.78010482087725
C         1.13400355056021   12.44096529672332    9.81274643966948
N         0.58935959100115   13.25755033096164    8.96552648554614
C         2.39382590499608   12.71780307270197   10.49297933488360
C         2.47368899259954   12.62913951992008   11.88875301667477
H         1.57162424698360   12.46289870003034   12.47540273398566
C         3.68911099791603   12.78154803188512   12.52551993179536
H         3.73762569329574   12.72742259748790   13.60270665646482
C         4.84646916756575   12.98186150880890   11.78939013066685
H         5.79723259250347   13.08100554515833   12.29050249858635
C         4.78333464304456   13.03326856177544   10.40760175576136
H         5.68475620681622   13.16470239311845    9.82745379778081
C         3.56794209740237   12.91356127279460    9.76037182623876
H         3.52964404762320   12.92026135883695    8.67846395322817
C         0.98824891990339   14.65149297299322    8.80799825713036
H         0.71666999370919   14.98073132710229    7.80341005034873
H         2.06889050170161   14.73654211269804    8.92803583525661
C         0.29020008042879   15.50864388324696    9.86085158007210
H        -0.79061851230038   15.42547555730508    9.78103250747709
H         0.57222771622047   16.55028516749197    9.73697304363015
H         0.57646900259264   15.18263024179906   10.85782043788152
C        -0.59559882738570   12.85156019115778    8.22135717279374
H        -1.04745514031043   11.97710908239598    8.72229157252955
H        -1.31766069707778   13.67138940092745    8.23272717536954
C        -0.22866048741567   12.47543478163518    6.78956219822674
H         0.17445677149343   13.32622317995163    6.24389460975827
H        -1.11243104267651   12.11874235248282    6.26901553547661
H         0.51446887989547   11.68009011766253    6.79041448908365
C         1.52620757826169    9.66504937690149    9.53115598409074
C         0.92479683918541    9.11278926879258    8.41491196012417
C         1.57138533511728    8.23970640066365    7.55567127675034
C         2.89238092376920    7.89749992065379    7.83759503128777
C         3.52619645313281    8.41544014235725    8.96447497862412
C         2.83001829014187    9.28603650291314    9.79294150768503
F        -0.37849844272795    9.47018515034775    8.21197646501005
F         0.95880793534323    7.72506128150383    6.47817970300579
F         3.55195272244698    7.05802912282999    7.02596070894282
F         4.79218475580201    8.06222078275857    9.23337143765507
F         3.40990037167730    9.77446098332009   10.91306236594574
C        -2.34867001472584    8.85899263435138   11.69935779486063
H        -2.63138006422472    8.63096180859873   10.67095616584982
H        -2.85442372500538    9.77409505538133   12.00630197720898
H        -2.64403656951432    8.03776068702654   12.35197695464596
C        -0.23825164394131    9.33395954005978   13.57150197191875
H        -0.62603690072815    8.48409524771459   14.13285218509870
H        -0.72869035392689   10.24840834264847   13.90655728370710
H         0.83650953600179    9.42712754425273   13.73957987762428
C         0.07602711261131    7.39785770939986   11.51926081527914
H         1.15561785639033    7.37317733694143   11.66356494777300
H        -0.14694542808530    7.07874509251337   10.50175906276482
H        -0.39910380455422    6.71481090641661   12.22257896915940

