80
CSD_code = MORSIX | q = 0 | S = 0 | Stoichiometry = C43H32Br2N2Ni | MND = 4
Br        6.72672332459949    7.37387624434413    9.37254972285133
Br        7.33699102226775    7.22212868853538   12.48802206660575
C         6.79255286950980   11.40267084557848   11.68240308134550
C         7.25188275053689   11.45589806118725   10.29132104351248
C         7.34988766137412   12.85806418907397    9.91243742390053
C         7.80585827502752   13.54718621471349    8.81497857620777
H         8.20342566576075   13.04003422678816    7.94835294414521
C         7.75018001150927   14.95274916465215    8.84074251924195
H         8.11045838292712   15.49056774348687    7.97605801939458
C         7.25429148635639   15.65834617627492    9.91040637242010
H         7.22265063147229   16.73762794617654    9.88097566576982
C         6.25904488580187   15.54676113614534   12.24246174552810
H         6.17003324195513   16.62020856748318   12.32290095883158
C         5.86176643007959   14.73998465758209   13.28077630080031
H         5.45630484503253   15.19236966678087   14.17382960328590
C         5.96979064458499   13.33811628481045   13.24211134980480
H         5.65458923864146   12.75200725100415   14.09169126608909
C         6.47797371548069   12.75707581374114   12.10665921122098
C         6.78715404601875   14.98195055740505   11.05986591340812
C         6.86204447230216   13.58740606286555   11.02509051660775
C         6.46927632035610   10.17141981677879   13.63939272421040
C         7.47094620742663   10.14096784989486   14.59066628251128
C         7.11615058999157   10.07928667141690   15.94735416789657
H         7.90268410404169   10.07343427050252   16.68672924630691
C         5.80677915434862   10.02394897452618   16.33252523726204
H         5.54750866744371    9.98004491981126   17.38003807075301
C         3.41078523965912    9.92386648619178   15.74556604125130
H         3.16420333580233    9.87145403834392   16.79617812301633
C         2.42757854166508    9.89553345346577   14.79652684308149
H         1.38994361827482    9.82514272720401   15.08707308119106
C         2.75816023861563    9.94303441347012   13.43443623016830
H         1.97312750704130    9.90138667397239   12.69410705019482
C         4.06480422759218   10.03279084630815   13.04390564754635
H         4.31064196381910   10.05023534098621   11.98960774986852
C         4.76922530669417   10.00839324774726   15.37792028791480
C         5.09908268411786   10.07808840816572   14.00066809680397
C         8.91144786616741   10.22935047968414   14.13268875449943
H         9.01211916180263    9.56068903428130   13.26316112262840
C         9.87071685179691    9.71453514486620   15.18308556361801
C         9.82906132053081    8.35685172937383   15.48785207172392
H         9.12846897399388    7.71707333413488   14.97031548882399
C        10.67547826194776    7.82879091848530   16.44401942925209
H        10.63242552481284    6.77429716485120   16.67144793917326
C        11.57748395508801    8.64768855401703   17.10428336437215
H        12.24053910495788    8.23580646903670   17.85080559424953
C        11.62841457025594    9.99576333940813   16.79896430795763
H        12.33254500112270   10.64035645535892   17.30533083900901
C        10.77906165880076   10.52877132043991   15.84299927135526
H        10.83401490918387   11.58297724656098   15.61215942039104
C         9.20360534873522   11.63436095507018   13.66407558812803
C         8.84589069523952   12.73587958833064   14.43309813498412
H         8.37111398794049   12.58375325076886   15.39202413021767
C         9.09131630373886   14.01949070708316   13.97937660274498
H         8.81266341792522   14.86652117335075   14.58919990907299
C         9.68485542548249   14.22172330593451   12.74508695247455
H         9.86561074592010   15.22418129766652   12.38624935153426
C        10.04792238627701   13.13175506390803   11.97328542080615
H        10.51364445033449   13.28246110118438   11.00953092918837
C         9.81232055521672   11.84904609232670   12.43435137846164
H        10.10469123349309   10.99784913782009   11.83505240549300
C         7.92955474178401   10.25510509906772    8.37886475370797
C         9.19769882693207    9.71793878433593    8.12175609621253
C         9.62176146105514    9.61611729964892    6.80718964446263
H        10.60157504844118    9.21252642822554    6.60060706525811
C         8.79878035893339   10.00812602850363    5.76720073980008
H         9.13883545937195    9.91975495115566    4.74676628890212
C         7.52630838291484   10.48139239968276    6.03243108420631
H         6.86896049270242   10.74556113466947    5.21731161224667
C         7.06612241330366   10.60821593085648    7.33349702892692
C        10.07035167918122    9.27777130755294    9.25583755159558
H        10.84565907607034    8.60235009994843    8.90471258676750
H         9.47489354391955    8.75158873716784   10.01904872643721
H        10.54799759942589   10.13472404232836    9.73418347299389
C         5.65804340673642   11.04232570104293    7.61001101497495
H         5.20816891176871   10.40604481677558    8.37227197958872
H         5.05993831023954   10.96498413932137    6.70585461879267
H         5.61631516997848   12.07553933763889    7.95954529721628
N         6.82760120210739   10.26422685325631   12.28564975146209
N         7.50406134205628   10.33658501997233    9.70903787460467
Ni        7.15735955417559    8.83009138747876   10.98134966073907

