124
CSD_code = MORTOD | q = 0 | S = 0 | Stoichiometry = C52H58N8O5Zn | MND = 5
Zn        1.41851245778127    2.60659330080988    8.24543792108522
O        -1.72341152974387   -1.87991420836944   10.59359350074660
O         1.48355611694497    1.49585553431468    6.24273049382556
O         4.47582085573142    7.33663553707020    6.40761391394997
O        -3.65790854884865    5.32682779217767    6.74836406857570
N        -0.55689980721561    2.70648358918330    8.15301838453468
N        -0.79363675739737    4.80081543150363    7.01760645169160
N         3.57568181711401    0.55236865898448    9.76785992118459
N        -1.11734954260662    0.63196153788551    9.21632346990096
N         3.34110922541421    2.63009030671482    8.60927785083071
N         3.89482004341237    4.72020707136086    7.57217051664966
N         1.25996461508501    0.91990785032445    9.26224872708968
N         1.52350340441310    4.41300046053722    7.49029247347552
C         3.17262849404136    7.36681635437962    6.08100328824690
C         5.46971931568751    1.94446030217850    9.10485821327078
O         6.46586913230268    0.04901889402045   10.06083875708814
C        -2.68239151137683    3.40271327432430    7.66423871370250
C        -1.41221267210121    1.75019032361184    8.59350838142476
C         5.55387812491429    3.20021582125244    8.48107276683447
C         1.78541217932072   -0.88901828747892   10.56486022506044
C        -2.77418283823955    2.14547797668732    8.28468274367552
C         0.97922152805147    6.32320585320934    6.34863941488607
C        -1.27047270498435    3.71763399191235    7.59129198349736
C         4.18930615616217    3.59326443069357    8.17732161279216
C         4.05614036879924    1.62655440511484    9.18319448666125
C         0.39629076667215   -0.89935055339881   10.35264052882490
C         0.10127670714412    0.26846394811583    9.54876204858713
C         2.36849930627087    6.32326964508856    6.55521041936194
C        -3.82846746031789    4.08745644893756    7.24088056666002
C         0.48131234903226    5.11113260136731    6.97543539458337
C        -0.41894585280505   -1.88269870051677   10.92586260151145
C         2.67442119056883    5.09622124285875    7.26311699760744
C         0.35018121347820    7.33204591355205    5.64015523051170
H        -0.71624264443960    7.31478334294637    5.48983764215078
C         2.29642598659722    0.26030021119118    9.83751676932132
C        -2.71456284804642   -2.40108128576830   11.46946580763921
H        -2.26543087293582   -2.67159000687567   12.43343640144291
C         6.62605745839665    1.26370616903525    9.50766710377125
C        -3.99216193475802    1.51416251076204    8.47053949025442
H        -4.04172868843683    0.54863290327645    8.94529400243489
C         6.76586921204850    3.83195581452138    8.26511098047324
H         6.80247118258326    4.79572666251586    7.78601424578858
C        -5.04566540354496    3.42714771534021    7.41463610963962
H        -5.96527701218367    3.89451804864866    7.09865097570307
C         0.21491798939824   -2.80973874432490   11.75436184550315
H        -0.35833390958380   -3.58854682775199   12.23294405679917
C         2.39879560652679   -1.82038844503682   11.38494187684519
H         3.46048120347100   -1.78369673373265   11.55829402264616
C        -4.59148293252511    5.91568702057570    5.85396510403902
H        -5.32838182248705    5.17063634126595    5.52737364301454
C        -5.11838729194525    2.17341000236689    8.01277676467264
H        -6.09054900969820    1.71570037583075    8.12805270139231
C         2.52592871600203    8.36474517672208    5.34902454496158
H         3.08907829722157    9.19176262290033    4.94532366130934
C         7.84052931500292    1.92172205236971    9.29948202585721
H         8.76696590311722    1.46495668943826    9.61179920151048
C         1.15212762098120    8.34070691999036    5.13633066099972
H         0.70666860507653    9.14485892898105    4.56810719311550
C        -3.38004115428465   -3.62868220230195   10.83353238844474
H        -4.25765722208537   -3.89263258851209   11.42669496214023
H        -3.71583026742691   -3.34218658921815    9.83537492645100
C         7.90244440375668    3.17347627264885    8.69730379795356
H         8.87216486674471    3.63107371390660    8.56302230768221
C         5.46178415770457    8.00436710093869    5.63266662433449
H         5.02487181427548    8.37523731891158    4.69670144300601
C        -2.45201243907217   -4.83256168865772   10.72646583348136
H        -2.95934680905349   -5.65264542003609   10.22346879755637
H        -2.14895265976884   -5.17715855958286   11.71351263573055
H        -1.56258205188645   -4.57790237712514   10.15494665409302
C         8.23741770460885   -1.34180894015116    9.14631378954080
H         7.50634172722043   -1.96453276184771    8.63092375243523
H         8.48934505815097   -0.51880061935311    8.47373794876006
C         1.58672393665426   -2.76997488831050   11.97841962239221
H         2.02198071578448   -3.51249365138581   12.63191238591467
C         7.58570138093131   -0.75537589990370   10.40677117847732
H         8.32721934758438   -0.14749662829995   10.94891626089215
C         7.04726512787895   -1.81473008688145   11.37735085838569
H         7.88644913885744   -2.35516906673761   11.81756599326634
H         6.53418434799269   -1.27861425364549   12.17797998171468
C        -3.74910691184887   -1.28844599245494   11.70195537611505
H        -4.27152364366045   -1.10253958977395   10.76277337917564
H        -4.47686865745758   -1.64058109149854   12.43590635667729
C         6.54626592260456    6.96858246245345    5.29588190559722
H         7.27547753818198    7.43367544701090    4.62938553450409
H         7.05424700060839    6.69103744726913    6.22022850381180
C         6.06881956793483   -2.78443854246241   10.72522158340231
H         5.56922963885837   -3.37780128074764   11.48775922799478
H         6.57868941454790   -3.46792769093883   10.05079363468203
H         5.32201888806182   -2.22593318965422   10.16720760822419
C         5.08438001704987   10.31261245220000    6.66672577000421
H         5.54900004506923   11.08133984743151    7.27995424153075
H         4.19492163988831    9.95630875022699    7.18082205264040
H         4.78730422670862   10.76676059374333    5.72307192881558
C        -3.09860299307075    0.00499500695039   12.17723888251704
H        -3.85653338033562    0.76387421162149   12.35556049618939
H        -2.41266664329655    0.37171092448544   11.41718995557285
H        -2.54685949401257   -0.15799537139907   13.10156061028743
C         9.49536034094118   -2.14477747165503    9.45098731889306
H         9.97031615314222   -2.45885186787907    8.52453636208868
H         9.26291045991692   -3.03353434276590   10.03127278290615
H        10.20747901114916   -1.54398532574605   10.01351480017561
C        -5.29714079103469    7.09791572389639    6.53134325445038
H        -4.52456887244590    7.75320719002474    6.93721854669998
H        -5.85074164797375    7.65180547940512    5.77057408490848
C         5.95907812219062    5.71823518517444    4.65218736934762
H         6.75048726597992    5.01381153301236    4.40775721838693
H         5.42515039063154    5.97057998192209    3.73746851761423
H         5.26845480083455    5.23973331062237    5.34273359344189
C         6.06185879973664    9.16693784453493    6.43461909920658
H         6.94144947363611    9.53591091667550    5.90339830925936
H         6.38584703667663    8.76955200322175    7.39801968797348
C        -3.79714977192514    6.39680927937980    4.62899377632540
H        -4.50117267196627    6.77051541702406    3.88286380203409
H        -3.15526613824059    7.22206293241514    4.93967068800056
C        -6.24217505436306    6.68099672837622    7.65156511376832
H        -6.67336603314887    7.56120026446277    8.12286375274851
H        -5.70759531677548    6.11436778868647    8.41021202216879
H        -7.05702505063105    6.07114480442719    7.26532746637644
C        -2.93523281842378    5.28718104712804    4.03855185815280
H        -2.40321014835509    5.64935431929850    3.16207706934840
H        -3.54971705606704    4.43765696852682    3.74454862342392
H        -2.20794650445207    4.95832640813287    4.77744945445074
H         1.43154450729782    0.54786490962372    6.39818954687174
H         0.73054933569814    1.73667217517523    5.69477779226439

