67
CSD_code = MORTAO | q = 0 | S = 0 | Stoichiometry = C34H28ClNO2Ru | MND = 8
Ru       16.85854567447214    3.36221512439754   13.62050604856839
Cl       15.38572262145519    5.09027346905439   12.86558266317511
O        17.93126642531868    5.07374906378937   15.83753322354660
O        19.07283227224407    4.30638327985966   11.83239899600988
N        13.68991962440091    2.18252909507689   12.67584186700930
H        13.07785597527397    2.72236452899481   13.27652757108802
C        17.09215159776659    1.17853991607741   13.52657829982216
C        16.53195977697391    1.52148122891039   14.80541685201508
C        15.24205374519084    2.10773890926771   14.57639962496505
C        14.92567742661420    1.97680274834453   13.16782922985522
C        16.12568230910986    1.55202526568034   12.50805918339644
C        16.29017589912162    1.14622582036505   11.09328458527741
C        16.32393684086653   -0.20498085834633   10.76107652762647
H        16.19801349872889   -0.94808589941564   11.53587726254975
C        16.51944757317019   -0.59221957833135    9.44777917005284
H        16.54501898192602   -1.64272311778787    9.19842389083268
C        16.68578113912859    0.36090263697151    8.45733655804190
H        16.84080595860739    0.05482993036309    7.43352619936383
C        16.65864239592928    1.70756895419429    8.78211839387429
H        16.79443543267366    2.45406229492419    8.01397551220015
C        16.46703262090904    2.09998662467583   10.09331033222446
H        16.45136048970314    3.15134481932018   10.35616174430841
C        14.25388352853158    2.40013802737284   15.63197715241559
C        14.54521813139924    3.30602253128806   16.64904604420469
H        15.49489337927060    3.82483415674823   16.64119513656357
C        13.62721806812562    3.55446913171147   17.65096120662955
H        13.86538221000440    4.26217641890875   18.43075944611717
C        12.40362038043659    2.90481962833820   17.65187903614401
H        11.68449204211327    3.10350380682919   18.43231689219620
C        12.10637011969467    1.99861535374363   16.64848280531557
H        11.15693673868971    1.48295139867590   16.64754079205453
C        13.02363775259733    1.74338836383529   15.64511573063913
H        12.79682052524053    1.01259010877171   14.88111179476016
C        17.13105744527694    1.19965676767383   16.10910231042306
C        16.37199715178555    0.59620650223709   17.10884278256285
H        15.33064954343248    0.37119998600950   16.93051720435160
C        16.94982639598323    0.27747851239508   18.32437905579912
H        16.35008889902615   -0.18575239966885   19.09385741011411
C        18.28731695691006    0.54901458874715   18.55472281513692
H        18.73399536539250    0.30182283080848   19.50603197965422
C        19.05083781076791    1.14182437877557   17.56139383546060
H        20.09402473307872    1.35807737118791   17.73636632146410
C        18.47920081725505    1.46630946127769   16.34721063349781
H        19.06744810726945    1.94649295983203   15.57384644719908
C        18.25064836155840    0.30737125350032   13.28503849509170
C        18.43056033808602   -0.83299322647643   14.06663397513795
H        17.73363013706816   -1.05207321999604   14.86264903264563
C        19.48898661068916   -1.68766966431463   13.82182428952587
H        19.61823966579982   -2.56580053454018   14.43714320372243
C        20.37582053096281   -1.42372959853073   12.79199679210558
H        21.20187935419905   -2.09283435376582   12.60320553970208
C        20.19930649149729   -0.29734321908731   12.00525691660674
H        20.88747420052314   -0.08475250677523   11.20092084210586
C        19.14588626126590    0.56264204914791   12.24798093333491
H        19.02106778171799    1.44909397356356   11.64173753997354
C        13.27186583786388    2.17337871115338   11.28553174024685
H        14.06156805906344    1.69973214061859   10.69900759561749
C        12.00193904254430    1.32832092882466   11.18006735241436
H        12.18801935934779    0.31355553964000   11.52468957434382
H        11.66924769756569    1.28768421634706   10.14685433697897
H        11.20666759528879    1.76192197145071   11.78309544255116
C        13.03134070834992    3.59301653929546   10.77906223086161
H        13.89623160239909    4.21994784458865   10.98139756577981
H        12.17149786061402    4.03271423024308   11.28069474430789
H        12.84236215668115    3.58137148026384    9.70920918150050
C        18.23147986107997    3.94848116382653   12.52291014020582
C        17.51484610396729    4.43751013913522   14.98099196673330

