52
CSD_code = MORTMN | q = 0 | S = 0 | Stoichiometry = C15H24MnN3O3S6 | MND = 6
Mn        1.39459399967360    3.38481675283705    2.18252271442829
S         0.87274218614353    2.07844505761283    0.30026217600665
S         2.49445034255178    1.34195889923494    2.55183783315873
S         3.32697729268253    4.38482042428643    1.28248590737772
S         2.36556188732258    4.54991298921401    3.98192065856682
S        -0.08035639492744    5.14441434373076    1.67590196804809
S        -0.61336380893192    2.81454295020084    3.26665214244605
O         3.69864603850904   -1.76685963659400   -1.19931425562812
O         5.52947472801296    8.39085980856921    3.34326492111213
O        -4.32268922956804    6.08941704555848    4.20081114103829
N         2.02269830953731   -0.31744994034062    0.51749552083460
N         4.61203562136657    5.74636308335137    3.18236333191906
N        -2.49440427508630    4.61044423880706    2.67523898407630
C         1.83124513859683    0.88623249545123    1.05001909624262
C         1.57100465078415   -0.66843018323721   -0.81099819600999
C         2.79792631280740   -0.81800361261745   -1.72055522281441
C         2.96225232510188   -1.27411174693689    1.05963426516891
C         4.14219930062462   -1.40142269339334    0.08622021126187
C         3.56209305425747    4.99863971188908    2.85481638656909
C         4.74741963818275    6.39000083302356    4.47060052169795
C         4.59400782524569    7.90494738784670    4.27685724006129
C         5.55377018887747    6.24783457499843    2.20577719083739
C         5.37392051899696    7.76776616406584    2.08999215008485
C        -1.22171359270261    4.24186254517701    2.56364605096656
C        -3.43881759101771    3.93058560263421    3.53382539823053
C        -3.81173026717417    4.87093234850519    4.68806006103702
C        -2.99419211150242    5.87464721604568    2.18204025971792
C        -3.38493009184696    6.74767559628266    3.38226227673444
H         1.03771598296822   -1.62251488046418   -0.75220239476758
H         0.90226890426751    0.10576267366356   -1.18660796211991
H         3.29165976001942    0.16013551296169   -1.82278019753859
H         2.50341818660327   -1.18088164517201   -2.70593582322162
H         3.30223795680555   -0.93825715410506    2.03903450952255
H         2.45645057328818   -2.24011744885952    1.15412054094371
H         4.82540535883559   -2.18682739300177    0.41150954238481
H         4.67958482601419   -0.44188345360971    0.04483362369689
H         3.98863035835244    6.00676245174890    5.15241579503865
H         5.74482415042607    6.16895977414980    4.86359880698640
H         4.78772414897406    8.43356323462554    5.21098195356421
H         3.56988942654878    8.12241603304704    3.93772908287847
H         6.56620604521785    6.02258179432180    2.55558123856248
H         5.37785898914148    5.76268005327149    1.24596451831758
H         4.37546810442485    7.98156837127112    1.67960349128209
H         6.13470273113774    8.19595142143175    1.43626507826306
H        -4.33290891848840    3.69593950692456    2.94727499923134
H        -2.99321254079217    3.01051443975065    3.91140732036891
H        -2.92027395490734    5.05252335350678    5.30728809742673
H        -4.59771375131436    4.43096651046914    5.30291878444576
H        -2.22604525996509    6.36185276735117    1.58179713888302
H        -3.87782656999169    5.67973478960993    1.56576458958385
H        -3.86183095060540    7.66947818505622    3.04696110577076
H        -2.48055555372309    6.99174884587446    3.96003542801105

