32
CSD_code = MORXOG | q = 0 | S = 0 | Stoichiometry = C14H10CrO7 | MND = 9
Cr        6.76101898503223    3.93001944937505    4.96547450753677
O         5.09364103353590    6.61933599648572    1.91722584035975
O         8.20817948753276    6.14302776642504    1.27260076146466
O         7.16982871339307    4.13447268154411    1.49612289589552
O         4.94084930416423    6.73110129413522    5.73213719238466
O         4.09860624956181    2.94290379816982    5.87072461275992
O         7.59434511354434    1.61944456928583    6.64588808155574
O         6.46119368169727    1.66084723935784    3.05830658085436
C         5.99451180056373    6.09203526921632    2.51989090772304
C         7.34329032538704    5.40479224738049    2.07769774909640
C         7.65692286490594    5.36074293553135    3.56454871005616
C         8.67349131065429    5.11080338785687    4.46517551524814
H         9.66889680064929    4.80209769919004    4.17647790033274
C         8.31249617726807    5.29899688588254    5.82069539366030
H         9.06079490357252    5.14568496101854    6.58996355459992
C         7.07106847075744    5.83970240583675    6.20307857487358
H         6.87826740640571    6.06790646756038    7.24357436449240
C         6.06551559523593    6.17336596569295    5.26811514744120
C         6.38972512550357    5.91963789080371    3.91398342660946
C         3.84426762138046    6.83273968433266    4.83513725226229
H         3.04568259831084    7.30912325408440    5.39920815711570
H         3.52633265264697    5.83803297671946    4.50920101092860
H         4.09214074235707    7.43583799915625    3.95945122729495
C         8.05646493342983    5.63037446376365   -0.03795425582949
H         8.98166038357957    5.81756630865164   -0.58028111415145
H         7.21463992316255    6.12312098042971   -0.53868378962291
C         7.76137136496808    4.14529959610339    0.20779525131405
H         7.05728726575900    3.72112489224940   -0.50890670147166
H         8.67926976510198    3.54655727463243    0.23089745943211
C         5.11252556580083    3.35995360377791    5.51783000411449
C         7.29918460259397    2.53684316957139    6.01352152754175
C         6.58892923154394    2.58100688578003    3.73150225412653

