56
CSD_code = MORXOI | q = 1 | S = 0 | Stoichiometry = C23H19N7O6Re(1+) | MND = 6
Re       12.92662963514553    3.13206480134576    4.12515699332919
O         7.57738049041997    6.29232025054499    4.08937956829079
N        12.77664492078357    6.13969359063132    4.50358889856639
C        12.36511252054535    3.32802114686415   -0.96084029468776
H        12.28668958850508    3.31262895413816   -2.03593766123892
O        11.62049147249902    8.58593558595572    5.30534758042677
N        13.21286836516694    5.18915375757233    3.77226029883517
C        11.43381919000007    2.67449879157299   -0.17185593232547
H        10.60180670585651    2.15491088570824   -0.61863082530317
O         7.49883483937243   10.25007384964132    1.13350832013144
H         7.81708364815601    9.54842608256898    0.55445957170052
N        13.90843108916941    5.69159030346460    2.74784618996005
C        11.58420775680976    2.68973487204262    1.20740394075203
N        12.61334038750880    3.30236006980594    1.80647468653190
C        10.53554072807304    2.04165607697566    2.08444174547471
H         9.69249119411125    1.70548182001394    1.47924885274679
H        10.96784469672095    1.17205097519258    2.59777052353599
N        10.05372844182741    2.97682742472039    3.07022937686809
C         8.81390356127144    3.47181457499714    3.24846670005307
H         7.97521027064001    3.20475990536163    2.64182248637596
N        10.86507146544428    3.50935826381491    3.98907569952927
C         8.92159231526892    4.32657845112145    4.33193659023850
N        10.20346325756734    4.30590739983531    4.73571297255247
C         7.87464788905787    5.20561223061221    4.93909739802394
H         6.93538085555927    4.65345490853811    5.03112179365595
H         8.19958639359939    5.54038589977414    5.92938118108369
C         8.46515988752924    7.33053316521533    4.00564894981238
C         8.10101733825301    8.35684130193592    3.13525650049215
H         7.15418012014579    8.29494292666667    2.62257371267007
C         8.92150034513712    9.45622489924717    2.96234838520097
C         8.50333315698407   10.58683598848746    2.05193895562892
H         9.38805088635223   10.99017847433101    1.53561163176972
H         8.07878681557554   11.39128741395942    2.66128116392419
C        10.12513171737439    9.53626313222484    3.65524591249044
H        10.75635137591122   10.40439547553739    3.53808261470067
C        10.47827654134866    8.52190223193431    4.52981102840215
C         9.66199413487938    7.40832904486996    4.70125939130284
H         9.99765139652171    6.64911648424027    5.38789115815033
C        12.83943035721626    8.63183244995762    4.61644234601070
H        13.59453268876439    8.86627856958930    5.37484389822526
H        12.85935495659039    9.41549154874282    3.84651359023463
C        13.17244408494954    7.31464004662153    3.98341168316657
C        13.90085356181781    7.03705435360436    2.83955084218930
H        14.39216975727136    7.67639474510940    2.13767691871626
C        14.51448432379798    4.84252378939312    1.75246814515481
H        15.24245587528645    4.18118881147047    2.24144809415507
H        15.04288916850062    5.46875367223201    1.03235228593447
C        13.46221006763611    4.01180183779353    1.05147524085362
C        13.37355596669645    4.03919117018129   -0.33295480839503
H        14.08719574644891    4.60628678557074   -0.90827066832077
O        12.57352490244418    0.07083888206578    4.43002619230833
O        12.88870930351839    3.56578893688964    7.18771561446043
O        15.95351825048309    2.47764561106426    4.15124317984762
C        12.67109190229244    1.20356920834459    4.31823295685699
C        12.93705798013220    3.35864094184286    6.07716210257619
C        14.84518571106358    2.75442722806228    4.13354632637348

