53
CSD_code = MORXIA | q = 0 | S = 0 | Stoichiometry = C22H22CrO8 | MND = 9
Cr        9.80209270635458    9.17988841437791    7.12682151031879
C         9.18151732847715    6.68769769447131    4.70188394149227
C         8.06832475337312    7.12561096384783    3.74689574391282
H         8.50817507498718    7.15874427531687    2.73110527181406
O         7.07079213642864    6.13411351110620    3.79537731815757
C         6.00972465491555    6.39109368003124    2.90816305308865
H         5.32877810246119    5.54490921403754    3.01734856772888
H         6.38353392884361    6.41660958923592    1.87093234926586
C         5.31267267585206    7.71084983888519    3.23627096425802
H         4.89583245730438    7.65136051109171    4.24256188868481
H         4.50020733926634    7.88627949126829    2.53046725943231
C         6.33691738880015    8.83995392784242    3.17081495698552
H         6.69740805143208    8.94633538036591    2.14428509753183
H         5.89472293114409    9.78671990463429    3.48049896132836
C         7.50901967137492    8.50440274875158    4.09526925990059
H         7.13973706006135    8.48050736364330    5.12725548418280
C         8.61701969405862    9.57148898026370    4.05267172091119
C         9.78165023774148    9.14038898376404    4.92801843618693
C        10.72681094230255   10.11682385646763    5.27540607758828
H        10.66392986644108   11.11853128232548    4.86563305791955
C        11.76263598008730    9.79436221669155    6.15599383508293
H        12.50733266589607   10.53978801086455    6.41185165952671
C        11.92954545385647    8.47748909627007    6.60829984756283
H        12.78224502563140    8.23889075381438    7.22851094477079
C        11.06010580864260    7.46144591499930    6.17496404452831
C         9.97470511422138    7.77884221342975    5.28956573740792
O         9.40120642913532    5.51479359274193    4.89672369654536
O         8.02389369854079   10.73804098893535    4.59055132732183
H         8.60305514528776   11.49805639711171    4.46719011411100
C         9.14603831416471    9.81124418136704    2.64435261845693
C         8.71434385238281   10.78406820162204    1.84718416836530
H         7.94065791313950   11.44913167745555    2.19349860529566
C         9.21409996356506   10.95054171513618    0.44306549995253
H         8.37572410366750   11.17838516082725   -0.21803966760803
H         9.90998895182526   11.79410272479199    0.38692314821664
C         9.90611046784901    9.66224060322205    0.00385070267436
H         9.15980677175686    8.88598733025204   -0.17561049517615
H        10.47990738181230    9.81070487731943   -0.91034086482013
C        10.83425499386511    9.20269615766695    1.12253144182099
H        11.35138344281756    8.27610649343450    0.86382849560939
H        11.58193947890520    9.98181051750159    1.32680390076237
O        10.13061219437903    8.91701219179803    2.31776538346258
O        11.20276513289920    6.17649557407990    6.52363164220823
C        12.10603017561631    5.82337719192642    7.54798374754848
H        11.93498986342721    4.76296483009337    7.72243518960456
H        11.90098000797212    6.38203681538253    8.46717855912988
H        13.14687960002368    5.97380676215123    7.24282714669989
C         8.06690891402975    9.73493101968566    7.29903985471514
C        10.00491939703566   10.42812383669981    8.43748309588700
C         9.34241473379191    8.10993439666106    8.53680262069669
O         6.99735800988330   10.09162306204703    7.52855990727051
O        10.07288811327745   11.20675540514288    9.28789747076945
O         9.03850589899247    7.49850047714547    9.46511570090993

