128
CSD_code = MORZOK | q = 0 | S = 0 | Stoichiometry = C58H65N4Y | MND = 5
Y         2.63673352454165   14.20512338495312    2.99843968489804
N         1.40080304977889   15.84093330658366    1.81767827704076
N         1.43383287156777   12.85343785658410    1.44987362627637
N         4.48269074204648   12.40813053113619    3.28593537858822
N         1.42528397140705   13.90797900417397    4.80687656748480
C        -0.26762572958674   14.43359151846677    0.80837085431027
H        -1.22724506205490   14.47955379357460    0.31177736552029
C         0.24974776580241   15.67133204145044    1.19229302559509
C        -0.59969990154299   16.86473138864285    0.81093631080156
H        -0.00066536350356   17.76766661728695    0.72437753373555
H        -1.35184060207043   17.02705012132742    1.58308757806708
H        -1.11658596557131   16.68776054702344   -0.12892069153587
C         1.93310043985380   17.15412077230000    1.90066700030850
C         1.61397109244349   18.00806315819207    2.96812450490771
C         2.20517095562398   19.26290627635270    3.02441261620626
H         1.97696658856814   19.92302494117725    3.84759189221593
C         3.07504107054020   19.68723410472912    2.03798332982876
H         3.51915404547517   20.67018756070928    2.09338052610484
C         3.36784595471840   18.85166212929580    0.97666952401771
H         4.03775752970985   19.19462537895986    0.20269619251181
C         2.81061520297561   17.58486604993151    0.89015026493910
C         0.66242347182084   17.57128047341475    4.05918691980438
H         0.20164373979833   16.62243501734008    3.76465682061579
C        -0.45287759822621   18.59566876249672    4.28106549498852
H        -0.93913466595248   18.84603055085707    3.34061412380106
H        -0.06493818652302   19.51217824311197    4.71872129832333
H        -1.20151282060995   18.19098097201914    4.95877900460448
C         1.43897721696901   17.32815508227597    5.35532720108977
H         2.19201324393812   16.55419901358418    5.19262083203114
H         0.76520790416269   16.99249195883237    6.14073217042407
H         1.93465927093985   18.23821144856490    5.68827953716807
C         3.12817789161510   16.69479618892152   -0.29122712796896
H         2.64789523599152   15.72220916051867   -0.13166296048560
C         2.55942188739532   17.29651766100757   -1.57924718219120
H         1.48388957188004   17.43263853522434   -1.49248173052973
H         2.75470245001788   16.63661071200453   -2.42210298418472
H         3.01174439160517   18.26331390957889   -1.78789307348991
C         4.63442901569485   16.46001372167532   -0.42234777129413
H         5.03060456756462   16.02476644549000    0.49392338105317
H         5.16214308386692   17.39052576733317   -0.61620545719001
H         4.83437266605576   15.77991329506023   -1.24830239879522
C         0.30714199460215   13.15978228605617    0.83259912505973
C        -0.45609237323857   12.13116138492535    0.02262965569657
H         0.13414280873089   11.23570761316123   -0.15279396440247
H        -0.74642776881067   12.55408354100229   -0.93750457081587
H        -1.36743640229657   11.85348971969601    0.54999463198603
C         1.95228427128183   11.54369405935141    1.31669691055278
C         3.07943954524235   11.34870516358869    0.49504521622353
C         3.59096469376899   10.06888073903304    0.34733876767483
H         4.44005839549279    9.89872234899340   -0.29522920555399
C         3.02333206416012    8.99503970315808    1.00823302831750
H         3.42915655697817    8.00295451676361    0.87514766422058
C         1.93538560129583    9.19469916426228    1.83491298197664
H         1.50334048687989    8.35158751596782    2.35259894359058
C         1.37815914303687   10.45557474488203    1.99875502614887
C         3.68527062725003   12.52740458790817   -0.23913087703266
H         3.60309876513867   13.41309050832300    0.41713136439362
C         2.89308392433421   12.81117435604987   -1.52037576743523
H         3.35122968062992   13.62943316218133   -2.07181401790913
H         1.86812648157034   13.08593303991322   -1.28790816116057
H         2.88122031572796   11.92790470615663   -2.15673837794186
C         5.16422541702744   12.34093294242400   -0.57737436883911
H         5.58870452088975   13.29131001359155   -0.89407149226778
H         5.29470293610201   11.62902832965839   -1.38958570346222
H         5.72078170611285   11.99274366953929    0.28976264511779
C         0.19436849205044   10.63169057672485    2.92544889239506
H        -0.19039090098010   11.65008906896887    2.82176564486096
C        -0.93609329376522    9.65143552657051    2.59866823517850
H        -1.16811672760830    9.65939261960505    1.53639487960692
H        -1.83213516970137    9.92469591378522    3.15175976409567
H        -0.66579875185735    8.63615348495132    2.87875683900060
C         0.62837555027276   10.45562531659394    4.38325878007856
H         1.35197590348524   11.22045652082933    4.65844791815157
H         1.07000422583709    9.47300153011077    4.54224257664992
H        -0.23137064392373   10.56058983449648    5.04139208839121
C         4.32953438774826   11.09697122311909    3.42273697269108
H         3.33816773247625   10.76113253349624    3.69084241315673
C         5.34659375141032   10.17899461018894    3.24240307435205
H         5.16418703841619    9.12570454032735    3.37784922469246
C         6.58919535387812   10.65818548935681    2.85803840526086
H         7.40690808420441    9.98026648655411    2.65985687968740
C         6.76762419673785   12.02073980093429    2.73877145399509
H         7.72727625326889   12.40344135333047    2.43155423827872
C         5.70487707344640   12.89556919376970    3.00150182563381
C         5.87095397716618   14.35784773881267    3.04073185021485
C         4.71706561043684   15.18670740756250    3.07401150032960
C         4.97906665151459   16.55492063637408    3.25303315455024
H         4.15206116209937   17.25170537687736    3.33067974265411
C         6.25655116891417   17.08658676590004    3.33646135924227
H         6.39054088653367   18.15233646855486    3.46041738907414
C         7.35686522495661   16.25051420135971    3.27258286989089
H         8.35850339287796   16.64991934424793    3.34684116659095
C         7.16040354349154   14.89168632744394    3.14228762862431
H         8.02662319688917   14.24687565794887    3.15558392823157
C         1.85720198308757   13.41396208888271    6.03001876433184
C         1.05054943461134   13.10564583243922    7.06245106460292
H         1.47934436158922   12.69718869647991    7.96670633833066
C        -0.41495230307035   13.41010528785895    7.06999991979127
H        -0.98789446712564   12.56260599133461    7.47812535160273
C        -0.83472928573432   13.69429830283381    5.66129182648056
H        -1.89412429977445   13.72233733411388    5.45276724459445
C         0.04651121504306   13.95314991207752    4.68760082228784
H        -0.32022527184233   14.19355253564988    3.68908193126965
C         3.31690816969527   13.17166513324663    6.16025665447033
C         4.22884154125801   14.22228028856341    6.07295516871978
H         3.87252991213796   15.23790439553780    5.95310052323749
C         5.58670291272422   13.98848000242334    6.21106343663102
H         6.28079170252937   14.81397001681004    6.14696156119242
C         6.05367953976086   12.70416554937544    6.43057456887704
H         7.11412827979577   12.52074182873457    6.52550717518149
C         5.15424863190792   11.65757361298437    6.54728142786296
H         5.51322765683773   10.65605364489569    6.73808001922647
C         3.79687765058244   11.89037472356262    6.42144132791982
H         3.09571798022843   11.07445755265256    6.52590742295510
C        -0.69592601129791   14.62757087789198    8.00875393163356
H        -0.36289327075070   14.36441059218885    9.01523889537807
H        -0.09693265896249   15.46919781106886    7.65582720396967
C        -2.14570595965018   14.98557646096656    8.01414858003738
C        -3.03451989440919   14.34471068125465    8.86953512237792
H        -2.66198622318933   13.60662059055234    9.56649802519161
C        -4.38434856064091   14.64480165443217    8.84243557702026
H        -5.06172067066617   14.14111426967753    9.51758577936798
C        -4.86908960059820   15.58942216935258    7.95375453991081
H        -5.92316105419132   15.82575744760067    7.93334317185865
C        -3.99459196047085   16.22974639814002    7.09207003788322
H        -4.36689468939164   16.96696592366887    6.39448324569919
C        -2.64549951759319   15.92851688709127    7.12284171157175
H        -1.96487055339421   16.42558473806627    6.44603401931663

