47
CSD_code = MOSCIG | q = 0 | S = 0 | Stoichiometry = C15H20BN7ORuS2 | MND = 6
Ru        2.66219529987057    9.58728335934523    1.77120094727025
S         0.23876049278359    9.33307150719898    2.06589154358700
S         2.20379258568544    7.19543932381211    2.08321958298598
O         2.33592025575410    9.22833292138285   -1.17500635796877
N         2.87942403393165    9.82172819954685    3.79932513195709
N         3.79045761770259   10.67647927282388    4.27089112107606
N         2.77880693064983   11.62857755503119    1.70468380456272
N         3.72220433616126   12.26525538920744    2.39885208074060
N         4.70708633021836    9.53982817889573    1.74374462609639
N         5.40337112032267   10.44400429749484    2.43302418023375
N        -0.40683951008654    6.77210631748735    2.39127690041717
B         4.67880363824089   11.47859089223827    3.30890851172566
C         2.48106038048925    9.38718049414467   -0.04719055587670
C         2.26673775842715    9.27300493916643    4.83810515451533
C         2.79432940704275    9.78626870375792    6.02214725117838
C         3.76236993835021   10.67681777136806    5.61133993866235
C         2.05053723005602   12.53329043825724    1.06796287056215
C         2.53818946152871   13.80731438551271    1.36039337118665
C         3.60084173759195   13.58805365758832    2.21099532015298
C         6.71566454607843   10.21398916614745    2.27547216798923
C         6.86595944729222    9.11973503483693    1.45035959286406
C         5.56301412883501    8.72880488951948    1.14054248996147
C         0.56520133441945    7.66220134665395    2.19372685892683
C        -1.79147240714867    7.18925707621375    2.47493163192970
C        -2.17393588665280    7.56934839210576    3.90265163340463
C        -0.11267629167592    5.35730782801807    2.49085957349203
C        -0.09867369179696    4.69338730174286    1.11719451451005
H         5.43220538399798   12.18475583743075    3.88058214698241
H         1.48674890229055    8.54326104130521    4.71516517788787
H         2.50809926953902    9.54031693942547    7.02374419044088
H         4.42217077750331   11.30038205050799    6.17968922455881
H         1.22635288154712   12.24208949614096    0.44255628684395
H         2.16760922165953   14.74518784241626    1.00232753008191
H         4.26567233764611   14.27959261576948    2.68708592623221
H         7.44869721249927   10.83160106560963    2.75307985390670
H         7.77801219707891    8.66831396718322    1.11942727021092
H         5.21896381146163    7.91733645415458    0.52538670087684
H        -2.41420084601758    6.36605296721149    2.11918083077443
H        -1.93306401851101    8.05116212457169    1.81810509471171
H        -3.22255378533221    7.84919587641658    3.94255512707009
H        -2.00709999961876    6.73598023241342    4.58162747930592
H        -1.57703432410344    8.41591688691037    4.23081539506619
H         0.86703554209836    5.24151042226883    2.96110666989620
H        -0.86978050872913    4.89929888940054    3.13130114210961
H         0.11988916122982    3.63451137592913    1.22007984250696
H         0.66854431399208    5.14956750428889    0.49750613256051
H        -1.06099775428610    4.80720777115008    0.62317409187946

