94
CSD_code = MOSCEE | q = 0 | S = 0 | Stoichiometry = C45H45P3Ru | MND = 7
Ru        3.80252494734074    6.22823897738638    4.47290650577935
P         2.92929243874352    6.35490377135799    6.55070594972532
P         3.98454838083985    8.47892938033306    4.48486951202084
P         5.85473788952806    6.11947142963174    5.40581990972172
C         3.10662017209776    5.06442210177587    2.92397526514235
C         1.98805036452083    5.89411397500345    3.23532093567005
H         1.11802436303392    5.40638926822482    3.67787536662741
H         1.70766093511985    6.65044031213621    2.49985187532651
C         4.21891150290499    5.74593825478201    2.34537710619330
H         5.10081826590514    5.14870823027255    2.10618909929757
H         3.99944369399226    6.48561300583600    1.57374651889977
C         3.44287557576947    4.10639447528954    3.92682378954347
H         4.29279749805381    3.45319920308754    3.72273825399105
H         2.61847286596526    3.57418609496962    4.40510170395420
C         5.00506199743360    8.22106857946613    7.13613994281067
C         4.12044048251314    7.11817984522876    7.74430252919366
H         3.56430982904982    7.51876620735005    8.59844146645908
H         4.77657558127994    6.31448410051295    8.09691232453382
C         4.19516014473339    9.13761717750375    6.20217385818345
H         4.66730401375860   10.12447967067869    6.15112134926331
H         3.19088924430646    9.24899862564986    6.62607743748385
C         6.22736512870738    7.62607902151063    6.41472283020654
H         7.00722112746401    7.38379816301365    7.14451986404423
H         6.61387984411909    8.38433856799361    5.72460135264844
C         5.52736791781774    9.08648461643049    8.29479184921063
H         4.70949343921622    9.62867729599774    8.76662582597731
H         6.25531266521879    9.81121204475521    7.93374364431008
H         6.00746846453533    8.46605667986985    9.04982355728046
C         1.41995543077163    7.35699759850251    6.85689257783173
C         0.73728626424853    7.90310672488139    5.77971497544417
H         1.12616034479549    7.74268634448287    4.78275110434637
C        -0.41907744533945    8.63724251335867    5.97773961493045
H        -0.93794064902606    9.06106016228571    5.12996513246282
C        -0.90517557441517    8.82542640739520    7.25956976706989
H        -1.80637054743884    9.39927531336214    7.42031048085350
C        -0.24071874223550    8.26435087071034    8.34005796764287
H        -0.62837788041315    8.39774709274011    9.34017597633891
C         0.91104675909318    7.52735249615760    8.14225994021515
H         1.40880188750042    7.06972414467221    8.98733686573222
C         2.33396329515958    4.90341141397785    7.49566191185985
C         2.84954526006676    4.39690402609865    8.68179476166276
H         3.69004531009757    4.86800144564690    9.16922891995056
C         2.28841743753995    3.26773534565649    9.25478003856163
H         2.69661197491705    2.88105687370203   10.17804770633448
C         1.21487419621760    2.63313455360673    8.65519845372434
H         0.78567703309856    1.75055741571831    9.10674256554227
C         0.69075241168915    3.13512099768068    7.47401855166487
H        -0.15016210755883    2.64624171512813    7.00310015924448
C         1.24832099390772    4.26089368550577    6.90289819444669
H         0.84758262885586    4.66885423045206    5.98269416599532
C         2.70870687009291    9.60575604355210    3.80875169859336
C         1.94131492939205   10.53034706023345    4.50545104411940
H         2.06379643590401   10.66638932939454    5.56958349491968
C         0.99857846517891   11.29301215140820    3.83628173729175
H         0.40636975780747   12.01003848569728    4.38734387269222
C         0.80960215411528   11.14288820908326    2.47380386646674
H         0.06905866329538   11.73873368417824    1.96036070503275
C         1.57498640704863   10.22616430243991    1.76977189107452
H         1.43443059728544   10.10683718497858    0.70495703416358
C         2.51539125493942    9.46654929010002    2.43538747340232
H         3.12490342050692    8.74902488972397    1.89925840385605
C         5.37808389247445    9.29901571391052    3.61211727935297
C         5.55672001050047   10.67921401387445    3.67110383338941
H         4.87250269351118   11.28997030544946    4.24572087238907
C         6.59475202002467   11.27440936644447    2.98050799005084
H         6.73092588697878   12.34541551796748    3.03287679971210
C         7.45562171755440   10.50377959997249    2.21316738107725
H         8.26423761671679   10.97512417488030    1.67345970735011
C         7.26819621674489    9.13525623569191    2.13085962374262
H         7.92810869211852    8.52983657286370    1.52621903435345
C         6.23091696452359    8.53814367486520    2.82589336120667
H         6.06817318915063    7.47006933263776    2.76611825374651
C         7.39742349631130    5.92654122293903    4.43828212691880
C         8.43667427423519    6.83946659600022    4.31238753106343
H         8.41132118065579    7.78655472549967    4.83039161709994
C         9.52508848006866    6.54398073680033    3.50852753402013
H        10.32854398110690    7.26129065905158    3.41658330871134
C         9.58948402616016    5.34332464395823    2.82374758438803
H        10.43990515308191    5.12268517671161    2.19512529161829
C         8.55943015833509    4.42389142001835    2.94841773228817
H         8.60596948945097    3.48261028929757    2.41952247097159
C         7.47482924997464    4.71699134054900    3.74975215017860
H         6.66391709785355    4.00724608069697    3.86170274309503
C         6.25796257981959    4.78263695761837    6.59984244239533
C         7.49189733848633    4.73699545319981    7.24452740063201
H         8.23428583842751    5.49948490564862    7.04746694121066
C         7.77862188183161    3.70834362322072    8.12116840268665
H         8.73624565607878    3.67968199710789    8.62162790515764
C         6.84593817986343    2.70839263067977    8.35350984934125
H         7.07623396004419    1.90589665178109    9.03927951728299
C         5.62828344122950    2.73474939330702    7.69656564796372
H         4.90105226799036    1.95336149520318    7.86435580558936
C         5.33927581508626    3.76698095323364    6.82111307823241
H         4.39379154255025    3.79794746035358    6.29566810581879

