92
CSD_code = MOSGEH | q = 0 | S = 0 | Stoichiometry = C40H42BN7PRh | MND = 6
C         5.86970385002991    3.55896215503022   14.88377397964342
H         5.22027300055501    4.40539032502532   14.66440616330783
H         5.28387370489984    2.64795943142374   14.76559153425907
H         6.69180898863135    3.54419655055396   14.17503870643805
C         6.37912874730979    3.63125767906838   16.27690156817524
C         5.60511614680890    3.47434823906145   17.43289224873325
H         4.54439409577600    3.33215992674210   17.48047495969491
C         6.49219021880043    3.52726369319051   18.48777760262186
C         6.21033114391888    3.41525837913648   19.94295549385795
H         6.65504879609337    2.51057242568566   20.35508930937444
H         5.13545762260034    3.37853671872965   20.10067556677816
H         6.61930048465797    4.26724503014420   20.48322577798197
C        11.98706442637301    6.90300323569794   16.41497181683406
H        12.94914661766877    6.38958649768228   16.38044449837918
H        12.16790783917538    7.95660622691380   16.61423989705693
H        11.51062400408087    6.79003611380910   15.44336644795059
C        11.14900646717851    6.31391685500372   17.49255616419991
C        11.14444639598536    6.67376074621399   18.84276607437400
H        11.68600812253725    7.47822370352811   19.29755743745493
C        10.30051256676148    5.77479108023913   19.46594741126263
C         9.92273425601039    5.69597817154160   20.90092622142775
H         8.84048243073038    5.72299502063027   21.01460618344085
H        10.35553639864931    6.53692534815872   21.43626651930020
H        10.28524572365986    4.77128633684917   21.34779868322983
C        11.55927965527017    1.31111984493670   14.98633517668847
H        10.84507246063851    1.55679584068525   14.20349633423778
H        11.86541006807205    0.27169462775137   14.89836294129767
H        12.43513721859590    1.94588622129402   14.85186932969905
C        10.96032674443213    1.54789522175273   16.32611311502254
C        11.09066738095356    0.74262664000956   17.45984846994129
H        11.61638933289228   -0.18777003955962   17.53316009921394
C        10.40276060179162    1.39331433217964   18.46542369228628
C        10.22489610739126    0.96496117862624   19.87792549257657
H        10.65173293341671    1.69682530545810   20.56176489772805
H        10.72311895138439    0.01098867063053   20.02920345704658
H         9.16893998872016    0.85221364704261   20.11758802313702
C         8.70253306034100    7.48044042453354   15.93992670689650
C         7.87790108446211    7.17809597698596   17.02285358053834
H         7.33179615568350    6.24474952011873   17.02690844563909
C         7.75899559436517    8.05038959953126   18.08665165467691
H         7.11972748804255    7.79977715879313   18.92125859271277
C         8.46629622306270    9.24197122192132   18.08486778454542
H         8.38296250500832    9.92299221329895   18.91906862496685
C         9.28296753289265    9.55291289433696   17.01211643317096
H         9.83672284367375   10.48091438341586   17.00714799024077
C         9.40607669918986    8.67770549417963   15.94599368419525
H        10.05953293557818    8.92871715367360   15.12313463633158
C         9.80365483937010    6.99981720710339   13.32300517099262
C         9.34037321256201    8.21093018113507   12.81204804607088
H         8.45249802228143    8.66527053633855   13.23114339766600
C        10.00376865184814    8.82546684774484   11.76775645499552
H         9.64205261940914    9.76735601574506   11.38107634456579
C        11.12527669755804    8.23091026920991   11.20998965754993
H        11.63958086886739    8.71179676357909   10.39085852344465
C        11.57451085814116    7.01560738133091   11.69593228956190
H        12.43748166979831    6.54119221088389   11.25236142546258
C        10.91578967551865    6.40137480445762   12.74768415348576
H        11.25125638094063    5.44416435438401   13.12177827808277
C         7.25931830648204    6.27723030140273   13.81250375721962
C         6.16614740269357    6.99910520520660   14.27360040369219
H         6.21300751438203    7.52862186787561   15.21467115175746
C         5.00312170819998    7.04943416307816   13.52231364480718
H         4.15743121798938    7.61577440093823   13.88686137521240
C         4.92112996941985    6.38056952394834   12.31305621352820
H         4.00936337110788    6.42203466851780   11.73488886081339
C         6.01118146528878    5.66111552493795   11.84887303011758
H         5.96003515329825    5.12927489722516   10.91159120244649
C         7.17557075920661    5.61398543062345   12.58961462314586
H         8.01914890595624    5.04205428933752   12.23037508428030
C         9.07100910192831    3.22526095045819   14.03807263339656
C         8.76942508869265    2.65595955815858   13.00865858902115
C         8.37486392259340    2.00468775284733   11.81735951820200
C         7.43566393275481    2.17024913494976    9.74717591768763
H         6.98331142995644    2.82510984407385    9.01074228105331
C         7.59481707010940    0.81759762113294    9.48999367988017
H         7.27130107086991    0.39065462675963    8.55300644014695
C         8.18209556698571    0.03277402970778   10.47454136479286
H         8.32575694047634   -1.02788520904887   10.31719883618390
C         8.57886990476186    0.62664688933538   11.65425579211558
H         9.03811569795874    0.05549728656388   12.44765744243410
N         7.65263908431483    3.79466911763146   16.62671997136984
N         7.72129531307651    3.71321614291659   17.97021639630591
N        10.33433318716642    5.27603232837654   17.32378782755779
N         9.83694529799115    4.93663146354319   18.52142965467191
N        10.22806541227509    2.61232898839523   16.64325989487810
N         9.89391008931247    2.52596052561075   17.94602411375248
N         7.80833524620950    2.75581918486438   10.86750069816850
Rh        9.60019628683728    4.23661580270903   15.63192037968508
B         9.07380603270098    3.61452866675083   18.67738513698573
P         8.87657488932014    6.17293268963227   14.66888685735418
H        10.95867637263853    4.36089559534215   15.02502469962748
H         8.93870817607976    3.34235274261488   19.81612935730907

