64
CSD_code = MOSKUA | q = 0 | S = 0 | Stoichiometry = C27H31O4PRu | MND = 9
Ru       -4.47960878958883   -2.66871698693921   -7.21164298048093
P        -6.64743406648739   -3.56073032299485   -6.77909946397028
O        -1.71440055527853   -4.10173671178262   -9.07486685562534
O        -2.29944473152783   -5.88587293509227   -7.84217505919761
O        -6.70260123634794   -4.27297643455322   -9.28017576189211
O        -6.03314746306791   -2.97976290799964  -10.98927669795487
C        -3.99117034163805   -4.37232233657024   -8.35819027988883
C        -4.52505929997082   -3.33601975743909   -9.23343152294617
C        -2.57196831958853   -4.71762197791367   -8.47922997475936
C        -0.95304428748245   -6.32225078775885   -7.90174735364505
C        -5.83601069894513   -3.58442999342286   -9.80305481676224
C        -7.29984779422780   -3.18703379335973  -11.59357679100564
C        -3.12936093640173   -3.13828703270562   -5.55529708442480
C        -4.12660288276228   -2.27662418207788   -5.03648459565091
C        -4.66191716265344   -1.04390246609643   -5.50251177647732
C        -4.61868010801100   -0.37311127607406   -6.74534078138550
C        -3.80004008837109   -0.69377536856439   -7.85944648040687
C        -2.65032839260116   -1.48103308450769   -7.72015396268773
C        -1.74591971524733   -1.34328606552195   -6.51863297690729
C        -1.71107136669654   -2.69659492614160   -5.83568505406797
C        -7.07454087845169   -5.34695173493503   -6.66222269799097
C        -7.18358753655299   -3.07327259879531   -5.08354632215150
C        -6.86324537730104   -3.87746357552966   -3.99188837211881
C        -7.23025730595512   -3.50943234144716   -2.71020508633900
C        -7.91564468115751   -2.32488759162484   -2.49602174359036
C        -8.22312754111588   -1.50854608960257   -3.57108505551067
C        -7.85499896836306   -1.87654609332515   -4.85336196163360
C        -8.05243507663821   -2.79237140632188   -7.65927929784381
C        -9.33724555715907   -3.31584301616649   -7.61597061245312
C       -10.37212353197284   -2.66372975278694   -8.26341928133695
C       -10.13668111832825   -1.48418873697536   -8.95030478755115
C        -8.85681521071005   -0.95439285624790   -8.99150909478362
C        -7.82226796002020   -1.60692645732139   -8.34699647634339
H        -4.62198566089909   -5.25221466894300   -8.20454939047048
H        -3.82613049299511   -2.86100310877430   -9.92557977049336
H        -0.60816826403819   -6.35361527466569   -8.93779296383773
H        -0.93289600083861   -7.31617875154861   -7.46147424422078
H        -0.30327703478906   -5.64650265417503   -7.33967528725243
H        -8.10227753857128   -2.92568837609339  -10.90003912011759
H        -7.32573676853669   -2.54603695500007  -12.47131621568880
H        -7.41355874463899   -4.23372019540627  -11.88443865300029
H        -3.14005633371157   -4.12362796036776   -5.07928437723589
H        -4.68443690632386   -2.66281410932229   -4.18118872608976
H        -5.40897843028930   -0.63005336822505   -4.82213636896670
H        -5.32825334199313    0.44353712599829   -6.85688279009475
H        -4.08263948913090   -0.28057039155700   -8.82950465249356
H        -2.11347165218503   -1.72842667550827   -8.63270908461046
H        -2.12524197107411   -0.58380281428889   -5.82676087195548
H        -0.74501417084906   -1.04438872225092   -6.83981133622038
H        -1.15600182307209   -2.67131656198584   -4.88878473262336
H        -1.21664972521669   -3.41642463648236   -6.48903215951091
H        -7.89628479485357   -5.49954359672137   -5.96364547922800
H        -6.19234179712456   -5.88222687990354   -6.31033942197741
H        -7.33626062942042   -5.70698556202210   -7.65211753536806
H        -6.31432081543572   -4.79576954016821   -4.14788913620308
H        -6.97777715190852   -4.14669328524178   -1.87472319085505
H        -8.20471908601006   -2.03797778894464   -1.49578475656602
H        -8.75159129899795   -0.57952841426656   -3.41102027962540
H        -8.09812934401833   -1.22985673159905   -5.68547807332944
H        -9.53117447717779   -4.23445946509401   -7.08400447063784
H       -11.36945465849029   -3.07843227076317   -8.23274875259735
H       -10.94753668776733   -0.97988592963560   -9.45540038392321
H        -8.66662346396932   -0.03677303005469   -9.53002516257400
H        -6.81058246504684   -1.21577780838736   -8.39053155245609

