103
CSD_code = MOSKAG | q = 0 | S = 0 | Stoichiometry = C48H50IrOP3 | MND = 5
Ir        4.09619221994759    5.02810794613362   27.58895937248511
P         3.63428036392972    5.99844807116030   29.76023924302285
O         6.13358859696826    4.19515318602218   25.50925886990545
C         5.10146338965148    6.14705612558190   28.87362438992828
P         2.27712379450835    5.43812077777819   26.11927948025926
C         6.37770434290401    6.89663469894143   29.08897457078178
P         3.32730078908609    2.68387593396492   28.21658903187939
C         7.46025753899828    6.41083113524749   28.11630433208988
H         7.61925314443519    5.34004455324496   28.22500434012347
H         8.40014319288887    6.92401617258251   28.31166883192580
H         7.16382025090824    6.60729924170745   27.08867360995802
C         6.85370491173206    6.65266848850716   30.52767432474205
H         6.08768911478454    6.95321852308085   31.23966170114865
H         7.76223360345152    7.21859805227797   30.72657720928051
H         7.06202988335921    5.59563974638120   30.68084546400350
C         6.16189416160026    8.40090291521702   28.86616816444084
H         5.75301528194880    8.58006909694014   27.87390201591191
H         7.11275634409577    8.92461394991663   28.94840978114052
H         5.47930016103664    8.80950531699636   29.60563446024724
C         2.87122332027438    7.72284987422536   30.01956843887096
H         3.24322102614088    8.39283632102065   29.23560616214454
C         3.20556627247768    8.28428720328862   31.39734655760617
H         4.28679827036138    8.39038383683575   31.51490938048883
H         2.85960202242475    7.58309387693757   32.16224309903143
C         2.53095474214520    9.63873826364550   31.59886857601587
H         2.77091039016387   10.02722473906885   32.59160478341105
H         2.91569346309503   10.34669763810938   30.85967651684604
C         1.01900487255253    9.51452741668514   31.43842919799347
H         0.54891600849601   10.49319916460916   31.56043518235656
H         0.62619712697586    8.85498430403573   32.21627768904590
C         0.67774419729192    8.93838257127907   30.06768144536025
H         1.01598093454011    9.62493574527136   29.28715990650019
H        -0.40436977529811    8.82487137026003   29.96585191920218
C         1.35804396951164    7.58785004974653   29.87192434374857
H         1.11588063823337    7.19607748617795   28.87978782088696
H         0.98441406027405    6.87714342882109   30.61617398986467
C         5.36384298985254    4.54698003207290   26.30149009474227
C         1.77813184673208    7.19605141202107   26.21375754219220
C         2.80454925324993    8.13183950143790   26.30179951193197
H         3.82935345970899    7.77743820600302   26.31247752165268
C         2.51735130707864    9.48026239441900   26.38977088964503
H         3.31900584842257   10.20165951180357   26.45986866714384
C         1.19787581081777    9.90545752692048   26.39714143831164
H         0.96880758567950   10.95844766626599   26.47415852446120
C         0.17213997718670    8.97903424990111   26.30983940872362
H        -0.85645929494640    9.30969562117376   26.31811585845581
C         0.45646279807598    7.62757490497487   26.21567264612727
H        -0.34934575291749    6.90923644779346   26.15159959175342
C         2.47721535419122    5.24042527990618   24.31257620258990
C         2.04358583853253    6.17676265028437   23.38035227743716
H         1.56069211007354    7.08671517988922   23.70813450742116
C         2.23092532765705    5.94346814134698   22.02912996204472
H         1.89484007334828    6.67553215168163   21.30883594642566
C         2.84466815299701    4.77902014806276   21.59828522505191
H         2.98723254155716    4.60315214051177   20.54217263477095
C         3.28132949111192    3.84451308245396   22.52394862349029
H         3.76552046501815    2.93667154119888   22.19575674865521
C         3.10560980597784    4.07834215408430   23.87384512282306
H         3.45811875028631    3.36191283967516   24.60267692342725
C         0.66856976068366    4.61155060406099   26.38414561477773
C        -0.12224739050165    4.09779720654715   25.36173742490443
H         0.18276310605283    4.21200631822252   24.33128772980286
C        -1.29685312496646    3.43261749427647   25.66788868019278
H        -1.90714527085376    3.03228911726798   24.87089159695784
C        -1.68967321624276    3.27303541531582   26.98708635718637
H        -2.60333076184073    2.74550301284032   27.21866101836611
C        -0.90719855958007    3.78671972966524   28.00931160270663
H        -1.20565999829911    3.66020280837444   29.03970756088684
C         0.26787871337198    4.44724479567535   27.70769605407110
H         0.89186623640868    4.83796545185637   28.50129002570022
C         4.64422629636198    1.81047133205643   29.14623401578732
C         5.67408376214640    2.54003914019204   29.72284911246511
H         5.69382661714616    3.61519670723655   29.58333490748488
C         6.65919733550249    1.89961292251940   30.45382434531776
H         7.45982370118698    2.47234936208900   30.89943869212564
C         6.61975628671325    0.52501504097502   30.61169482507378
H         7.38919189719747    0.02212089436393   31.17916647241692
C         5.59043489221750   -0.20787515960680   30.04085078964911
H         5.55817426822048   -1.28077604243815   30.16535000363401
C         4.60249778989273    0.42952105571626   29.31524914270498
H         3.79944142898576   -0.14383516809622   28.87324272761002
C         1.94050070734152    2.10865634161065   29.26987464374201
C         1.18868077137662    0.95866938238489   29.05866916528950
H         1.38820937671902    0.31886289973572   28.21131401926810
C         0.17545953789015    0.62278922438183   29.93908147827119
H        -0.40664618064016   -0.27128187537557   29.76564307569021
C        -0.09276497193861    1.41935137642289   31.03928278274215
H        -0.88751587627892    1.15157806363523   31.72047906969432
C         0.66562512808709    2.55662854462953   31.26584234401537
H         0.46735605317446    3.17728313099964   32.12802115955091
C         1.67497000670962    2.89717509599682   30.38661463599499
H         2.27091162666115    3.78535979616506   30.55652960816618
C         3.19763728145866    1.63594750549094   26.73357820010780
C         1.98206204264998    1.48850524229782   26.06914176274335
H         1.08307637553864    1.90863747624195   26.49672017795162
C         1.92237814202923    0.81407354053819   24.86373932244356
H         0.97276670128693    0.70187043998927   24.36038759651988
C         3.07550358695705    0.29350098552762   24.29916146562262
H         3.02706482554330   -0.23150847637445   23.35639892006979
C         4.29229466692302    0.45812102298571   24.94182904568790
H         5.19599848042035    0.06673343206604   24.49776456087180
C         4.35653790004898    1.13089008046573   26.14775456988915
H         5.30858368269348    1.27620472548081   26.63983362391888

