64
CSD_code = MOSNIT | q = 1 | S = 0 | Stoichiometry = C26H29N7PRu(1+) | MND = 6
Ru        9.95294994880351    1.35004602373531    1.49173653208222
P        10.82179726475560    0.64223518533427    3.54420855675214
N        11.71431526297247    1.45535275973279    6.05240335195071
N        10.54199467785647   -0.65807783972906    5.96978803735423
N        12.80489218964399   -0.49108232055015    5.10977476394898
N         9.50334805942268   -0.43911221550374    0.75396752656824
N         9.08846050297837    1.89204866440282   -0.22123407890734
N        11.80013761209739    1.48011629406693    0.69387883608137
N        10.44022222883617    3.21338014831136    2.03932104269550
C        11.20066864376035    1.97570642217398    4.80785292817453
H        11.93940928919701    2.67363108485148    4.39057328154219
H        10.27434614276600    2.53025338097405    5.00601966568222
C         9.84715437097899   -0.42953996461355    4.72524461275908
H         8.89737021039515    0.08200398245081    4.92235158073259
H         9.61677094158224   -1.39609127800814    4.26368322379945
C        12.46802710550259   -0.23975840382504    3.72934151837495
H        12.44771569514869   -1.19592986050285    3.19181211555000
H        13.25261895043420    0.38340023208336    3.27911231613243
C        12.96521593369446    0.74021900508762    5.86497097302835
H        13.36529743340312    0.48661981594391    6.85017359307684
H        13.67772773976784    1.38917106317548    5.34809067737979
C        10.75999787911486    0.57382754881364    6.70661815988045
H         9.80814864318919    1.09731109832967    6.82339389330075
H        11.15253989062497    0.31955750030016    7.69477035023303
C        11.81566860949353   -1.32837209191555    5.77267272202486
H        11.65931842028763   -2.23546184035688    5.18283528066111
H        12.21147119096880   -1.60632087381164    6.75317514588501
C         9.81010147473782   -1.62778179998947    1.28683801753717
H        10.40546631812031   -1.60128800792883    2.19158179550251
C         9.41780015742629   -2.83485875984348    0.75000362744709
H         9.69659614264756   -3.75653209482115    1.23428682192997
C         8.65776133677589   -2.83872267007309   -0.41537368764608
H         8.32042212815471   -3.76285992991305   -0.85508730472657
C         8.35513033666980   -1.62442644931860   -0.99723945577530
H         7.77822167745478   -1.59141254650682   -1.90619837946728
C         8.79395009421885   -0.43939488015807   -0.40522713407392
C         8.56497702723532    0.88554155674264   -0.96157871789861
C         7.89176417111492    1.13329213896885   -2.15905389096103
H         7.47710445481151    0.31645222696932   -2.72554539684603
C         7.75565678908443    2.42940919150987   -2.61282297994918
H         7.23486830318614    2.64037085597379   -3.53267020166523
C         8.30640967921664    3.45511079209161   -1.85240730591019
H         8.22936768228483    4.48335950395401   -2.16574065102448
C         8.95433847594691    3.14155117968608   -0.67541162377445
H         9.37716936740346    3.93251937217342   -0.06737934870439
C        12.41862409563080    0.54441463408711   -0.02782181491304
H        11.85920033290226   -0.36142348609280   -0.22814556268620
C        13.70631997335594    0.68160476238186   -0.50511132801545
H        14.15410045530946   -0.10986462256317   -1.08334679802932
C        14.40482800078035    1.85005940077570   -0.22300002993478
H        15.41490278725843    1.98933759799065   -0.57286831171894
C        13.77265125644616    2.83195844121244    0.51461865186330
H        14.28861702293771    3.74932377003956    0.74426237509822
C        12.46555810324215    2.62887948725145    0.95853184374224
C        11.69488664924971    3.61149054386211    1.71440580689984
C        12.17364222410684    4.87186747007353    2.07400606053836
H        13.17770836776409    5.16537972317921    1.81608621359311
C        11.35413023589165    5.74514749522288    2.76231655364335
H        11.71075481218399    6.72081078042862    3.05017786659167
C        10.05991801128714    5.33756542117230    3.06625273844936
H         9.38102553301220    5.98937082637206    3.59086723400225
C         9.65057388253674    4.07443815858206    2.68848781337502
H         8.65295379753784    3.71855263516505    2.90914936197781
H         8.55881400436825    1.37652376035506    2.16862053475767

