76
CSD_code = MOSNEP | q = 1 | S = 0 | Stoichiometry = C38H32N4PRu(1+) | MND = 6
Ru        8.29619975009993    4.19006816466593    5.65072133506617
P         8.33749608076834    3.81179587130529    3.32309948359924
N         7.03739899535878    2.72996848185488    6.14208841559195
N         8.25151866188537    4.43247977295263    7.63451078749413
N         6.92737372455250    5.67663039301498    5.51048538067876
N         9.50151824110114    5.75037812973911    5.32406696203249
C         6.47975606905657    1.82884999586287    5.32090484046910
C         5.62163550186381    0.83569972311921    5.74108250583552
C         5.30540087642560    0.73910097993122    7.09249506647797
C         5.87738209986175    1.65009999383958    7.95699632614286
C         6.73571131558052    2.63459891283471    7.46584556895935
C         7.39970033749074    3.62132393594709    8.30467098201112
C         7.20642106338617    3.74573338675257    9.68184342994900
C         7.90108919154584    4.70760076330575   10.38656196347705
C         8.78525572299405    5.52516684447765    9.69144406788405
C         8.92621368059337    5.35137459624673    8.32972796102617
C         5.61871810972626    5.57970200620038    5.74477256813765
C         4.74417208346361    6.64103619864587    5.62914972848374
C         5.24395579886643    7.88002283728061    5.24739354132848
C         6.60525938024567    8.00618814182568    5.05075237639021
C         7.43230258549105    6.89382776652238    5.20706672006538
C         8.88856223593653    6.93844867621923    5.11121062334591
C         9.61881948095621    8.10154778662467    4.86596823524421
C        10.99822430409715    8.04982696140410    4.83566050516562
C        11.61834280648174    6.82607398907151    5.05882497517622
C        10.83717445136879    5.71411895372912    5.29763018269358
C         9.71513906630160    4.73246166068655    2.55398141784247
C         9.57105116710180    6.08103516113084    2.23119430004644
C        10.64699985378140    6.79868615161223    1.74333105528422
C        11.87855902742014    6.18363544194750    1.58413027876370
C        12.03224651960319    4.84866622846184    1.91912556061704
C        10.95857459290185    4.12566607588807    2.40807720628976
C         6.90931590409490    4.34069065294083    2.30262427401160
C         7.04523465571513    4.83401505465404    1.00595409983712
C         5.92643561652817    5.19304953250674    0.27626990299953
C         4.66020644312031    5.06412195971039    0.82376056951805
C         4.51476436065077    4.56218913698939    2.10560736959286
C         5.63197347235823    4.20051472315812    2.83655848297550
C         8.65079666342590    2.13418396986967    2.65657105220461
C         8.39874260759849    1.82585144094346    1.32271351592780
C         8.69382909064417    0.56496147348492    0.83624884180541
C         9.24051274869916   -0.39691667046566    1.67008679127083
C         9.48917879373735   -0.09615534130235    2.99915876538268
C         9.19439250364426    1.16223563291514    3.49208266333466
H         9.46642038672732    3.20446532010151    5.81755127805694
H         6.74694249393244    1.90000426829317    4.27315690652496
H         5.21119032915701    0.14607328475795    5.02180938626961
H         4.64100359457886   -0.02737808200731    7.45628232124371
H         5.66675320662247    1.59710883373438    9.01208004092558
H         6.51767319974495    3.09450231552619   10.19344992971422
H         7.76473435620300    4.81761533372389   11.45022567763152
H         9.35780418863295    6.28450158933993   10.19836570585945
H         9.62069934981217    5.97195165216930    7.77631522025625
H         5.24719522907167    4.60499381620146    6.03877906821955
H         3.69433620416186    6.49952439747781    5.82703521080565
H         4.58888477191968    8.72703768755404    5.12231274512943
H         7.02412821721226    8.96100958686917    4.77999678920987
H         9.11082530241246    9.03688692366372    4.69908321420483
H        11.57744178782838    8.93900072639552    4.64612602195780
H        12.69188526342245    6.73628110792490    5.04705076651905
H        11.28468932529278    4.74565854593657    5.47441804547920
H         8.60913913277778    6.56463517665182    2.35263570570010
H        10.52388127080325    7.83995308264180    1.48415879343601
H        12.71534277521728    6.74537003071815    1.19828354863412
H        12.99114389705214    4.36815346292987    1.79763823319053
H        11.07802646836642    3.08521111628387    2.67514022369139
H         8.02574451319603    4.94242771958334    0.56474540534389
H         6.04463368966278    5.57355990047144   -0.72720985741291
H         3.79138131623434    5.34939147034309    0.25086806806049
H         3.53072132775424    4.44878541329375    2.53588696943660
H         5.51075284477656    3.79662639631192    3.83160745212240
H         7.96865525853929    2.56410004241608    0.66276846734295
H         8.49654852485306    0.33360038545985   -0.19956394910603
H         9.47005176172181   -1.37836397737632    1.28437070968519
H         9.91401375127305   -0.84207480696767    3.65373577930042
H         9.38310062446926    1.40533173123947    4.52974544208351

