51
CSD_code = MOSQAO | q = 0 | S = 0 | Stoichiometry = C24H18F3N5Pt | MND = 4
Pt        2.23060696042093    6.25660483965956   11.45057889147062
N         3.71358199634601    5.01476836962570   11.83755646651800
N         4.40862146392898    4.94225754323903   12.95075412332158
C         5.27538558072236    3.93784936957557   12.81240437692815
C         5.12826804261346    3.32930114136546   11.55946479968096
H         5.68604213413123    2.50769610401831   11.16076581613255
C         4.11391870378844    4.06079331040094   10.96746582927430
C         3.38940393631182    3.88908455273252    9.66631895740499
H         3.46314609964494    4.80632065257940    9.06555172928927
H         3.79400663317786    3.05020943390352    9.10092630693940
N         1.99342815248676    3.64411734851538    9.97690536050783
C         1.29647977343841    4.52358151419408   10.72474807665610
N         0.13434251894383    3.92642511555256   11.05731646329679
C         0.07714694442060    2.66131674297512   10.51525710945298
C        -0.88954474518281    1.66892019933474   10.55835880843767
H        -1.81901637821270    1.80985611319869   11.08716872675258
C        -0.61083659425709    0.48940460507928    9.89492570083438
H        -1.33787180802326   -0.30779196997010    9.90623667890364
C         0.59017388599456    0.30188679911304    9.21201228084485
H         0.76667893810507   -0.63709948747453    8.71066285531555
C         1.55879122887400    1.28563103050571    9.16260348946504
H         2.48534185984182    1.12968597713451    8.63325850156825
C         1.28938631393082    2.47446471723044    9.82383039813480
C        -0.84786621189538    4.49383782853286   11.93927441604891
H        -1.07778765795013    3.78985356789444   12.74016861108232
H        -1.76907220836919    4.73151355969457   11.40195716526480
H        -0.43125424566644    5.40388320480249   12.37835435277825
C         6.22511273153954    3.57687787466541   13.89082376267423
F         7.07094612005110    2.59955121452112   13.50753955524390
F         5.62148137716419    3.11984062273847   15.00713610304465
F         7.00097572291069    4.60272844747765   14.28822135242978
N         0.84087676693045    7.61883410796877   10.95232156577573
C        -0.20106248683377    7.39701958352843   10.15104441372586
H        -0.32218552918918    6.38913501902844    9.77671329609948
C        -1.10265453485896    8.37820311794144    9.78880446266363
H        -1.92744745389437    8.14278644098074    9.13572945526780
C        -0.91894653526946    9.66216948480370   10.28609992984194
H        -1.60804169122282   10.45417525221038   10.03522517822595
C         0.16959252142394    9.90659910277618   11.09641315767042
H         0.34618438947949   10.89788807028106   11.47986116816187
C         1.05647284514109    8.87496298231602   11.41607023244836
C         2.26684624151637    9.03228332709703   12.20480968223437
C         2.64274951112446   10.23362382192165   12.80920442725419
H         2.01288208852671   11.10905809877792   12.73994509181203
C         3.82657666267910   10.30616700079315   13.51289386184445
H         4.12017135368146   11.23406100928039   13.98242798809281
C         4.63296487173726    9.18267085870759   13.61900670583280
H         5.55849901299698    9.23820344018714   14.17424933683457
C         4.25886713491067    7.98800271565529   13.02465222625791
H         4.89532459152517    7.12396364004648   13.14426266891979
C         3.07601297036199    7.87482258287104   12.29981808531946

