98
CSD_code = MOSQUG | q = 0 | S = 0 | Stoichiometry = C47H43NO4P2Ru | MND = 8
Ru        0.15751213415111    1.14076155778760    3.27259473292156
P        -0.43509785531586   -0.99194755430012    2.79696819307164
P        -0.18477131830110    0.97161716448905    1.03467612943688
O         4.94116787056197    1.09351833303158    1.88811760098031
O         3.00260649953939    3.18994642508081    3.06741851266969
O         4.43043546055113   -0.70247947616198    0.63131792293201
O         3.78274582074332    1.56767745042393    4.42096813262637
N        -0.66914858825871   -0.69449596540369    1.10452966316582
C         2.15431932570484    0.95827265954462    2.86465217859361
C         2.76948663737408    0.10598813444352    2.02219423752050
H         2.22453245772270   -0.71615138591705    1.57462801416260
C         4.13891712462581    0.24718093141521    1.56186350839251
C         3.01019972186899    2.03198888529227    3.42188490879490
C         5.71777190769605   -0.61039264598382    0.05261475773690
H         5.77605176714692   -1.39842627124349   -0.69474239077765
H         6.49137346768741   -0.74654563195576    0.81241224448841
H         5.85494736872451    0.36891934060880   -0.41250129645694
C         4.76720803846619    2.46287689104642    4.90797921195350
H         5.11200031388779    2.06145289080029    5.85864742173984
H         4.34813341666194    3.46398564363394    5.03639959755887
H         5.58854532420453    2.51361720449387    4.19010834700142
C        -1.66991604949528    1.77431007967099    4.37985021276181
H        -2.70271603932580    1.45167976109607    4.33325348096211
C        -1.12023542152598    2.91094346380468    3.74016850588099
H        -1.64020047629458    3.54629898722889    3.03171007287627
C         0.18210605993663    3.15897828438885    4.24410261183291
H         0.77757253711555    4.03829590122777    4.03928448181525
C         0.41050479720047    2.23413314789474    5.32120029426163
C        -0.73565644292476    1.35716355515454    5.39118944740822
C         1.41649405552456    2.13638313683736    6.30218933708034
H         2.24060059778527    2.83473460760867    6.30069684297787
C         1.30526981375013    1.17814268980825    7.27633515985021
H         2.06746157839574    1.09723559323612    8.03733306069710
C         0.20239790599669    0.30802767242702    7.32765541928689
H         0.15115997102640   -0.42302838798622    8.12173075791669
C        -0.81744882445616    0.39239690689922    6.41490433924918
H        -1.69083283535616   -0.24278774659625    6.48756017760073
C        -1.27021623857366   -1.63247923784744    0.15686561113787
H        -2.06142832575686   -2.16752414071683    0.70596980390489
C        -1.93438822433723   -0.89097144222256   -1.00465169512693
H        -2.78578277684818   -0.31183050003218   -0.65424266191886
H        -2.28027512371349   -1.60297718531726   -1.75031529220066
H        -1.22774812689186   -0.21102125292007   -1.47402713812868
C        -0.32771332670250   -2.70309389399020   -0.36562903309728
C        -0.88510201551181   -3.82978383977349   -0.96385529191620
H        -1.96041513122961   -3.91593094270526   -1.04480462838448
C        -0.08169933073921   -4.84693730553353   -1.44270052855790
H        -0.53203220974565   -5.71440511217064   -1.90306590457708
C         1.29594147403034   -4.75910422007032   -1.32511283565305
H         1.92316360252042   -5.55675034038221   -1.69460452409157
C         1.85805758788599   -3.64719597279856   -0.72607423516382
H         2.92872202453169   -3.56273570581919   -0.61794597320918
C         1.05000672609169   -2.62893898861721   -0.25111695755128
H         1.50661394017959   -1.77498103912858    0.22147047863745
C        -2.04373489869700   -1.58893976520159    3.41878377765560
C        -3.26542258503376   -1.25285721403950    2.84635303660520
H        -3.29143468285410   -0.68253711716051    1.92865849088332
C        -4.44852096538245   -1.64733918565642    3.44590118472110
H        -5.39378455816740   -1.39082198942119    2.98906460787887
C        -4.42374288626579   -2.36315590729897    4.63133904292273
H        -5.34868074509401   -2.66446009587766    5.10040001186613
C        -3.20992747346713   -2.68729744977830    5.21724579205290
H        -3.18829894241736   -3.23839109630120    6.14627378030442
C        -2.02681925728525   -2.30265418381546    4.61573246529971
H        -1.07454696117432   -2.54928298682669    5.06713113963210
C         0.50413484559720   -2.55474128920458    2.94266950518168
C         0.00188666237877   -3.76965771261763    2.48596315657099
H        -0.98520841976751   -3.81941491709726    2.04917644403645
C         0.76453643187643   -4.91617465616428    2.59957975629871
H         0.38000316683306   -5.85496030694205    2.22861815202590
C         2.01757345039902   -4.86273068625593    3.19006959890980
H         2.61141916750246   -5.76123148099330    3.27240854043938
C         2.49995061109772   -3.66422931438101    3.68885210072615
H         3.46582586141152   -3.62619628523449    4.17020065299224
C         1.74456795951779   -2.51126890153394    3.56848173516149
H         2.10244770498952   -1.56529762862224    3.95529428853014
C        -1.55554291135625    1.91017578898197    0.26466814124083
C        -1.41170198996823    2.64045150289169   -0.91018942139171
H        -0.47070077656801    2.63103590898747   -1.44075106060677
C        -2.47536431324683    3.37844260255798   -1.40066021217525
H        -2.35760799506808    3.94223990220389   -2.31436917446253
C        -3.68459680929641    3.40003115983716   -0.72630409674712
H        -4.51059593232800    3.97760547397399   -1.11395408677416
C        -3.82944745773872    2.68728582668920    0.45409335722960
H        -4.76737112340038    2.71172906336864    0.99028822104491
C        -2.76728545672049    1.95604207545601    0.94879728271298
H        -2.85816715017000    1.41458234737592    1.88060588721970
C         1.14475830945926    1.23754978978873   -0.18950867083932
C         1.45894421028945    0.45860069113583   -1.29516820462277
H         0.89192692103198   -0.42835043303110   -1.53140477310064
C         2.53293295241970    0.80738800832339   -2.09783450395023
H         2.78279057693442    0.18809337845072   -2.94739966053489
C         3.28705350011123    1.93219842731683   -1.81277698947791
H         4.13070310685261    2.18834422365349   -2.43742396182851
C         2.96278139358143    2.72612587235167   -0.72297478835318
H         3.55169308740271    3.59910633081033   -0.48727631739939
C         1.89761210861156    2.37977862503070    0.08331445371844
H         1.65835961519048    2.96897249039309    0.96097629314087

