72
CSD_code = MOSVEV | q = 0 | S = 0 | Stoichiometry = C27H41NNiP2 | MND = 4
Ni        0.20476200680767    3.89838454829670    6.27373803123981
P         1.37839211314351    4.07813492476911    8.12949088398059
P         2.01080224151884    3.95403649898204    4.95909663709336
N        -2.57503040052199    4.29889006964359    8.78825263862811
C        -2.14770610173340    3.77545949358950    7.65102922929136
C        -1.81721873419527    4.65403634331881    6.56809939338606
H        -2.04326684143894    5.70393906145992    6.71575168022972
C        -1.53973536060181    4.15407609619791    5.29610978026432
H        -1.57807503509430    4.80288840852118    4.42609521678165
C        -1.39122101177726    2.74435044049411    5.11894127122930
H        -1.18604970980305    2.35420032153917    4.12799464111249
C        -1.55743464457896    1.88802457473702    6.17722214497818
H        -1.45507966775022    0.81796669954537    6.03954342932449
C        -2.02697320942282    2.35566373721487    7.44248213882545
C        -2.39585579677785    1.51580659892829    8.47738531349891
H        -2.32636111582746    0.44081511742696    8.36175887264149
C        -2.85069802828872    2.05944611664138    9.68826223605921
C        -3.23292399640617    1.27167797335841   10.79310391756770
H        -3.18672992237063    0.19469589525283   10.70128316656211
C        -3.65010787263384    1.85780883733102   11.95465401968553
H        -3.94233391771049    1.24903054787566   12.79831717419094
C        -3.70303233063653    3.25772021960307   12.06427988583020
H        -4.03492715797747    3.70054887346013   12.99271384861342
C        -3.34244240453984    4.05306716290445   11.01364573555828
H        -3.37953636545947    5.12972406615158   11.07990368565200
C        -2.90952865379944    3.48294811996143    9.79629125128254
C         0.91864033870520    5.54836272546211    9.18213678150797
H        -0.05158484178286    5.27334377467656    9.61462235210708
C         1.88992055562076    5.90649754010580   10.30084184071417
H         1.53727962125722    6.80084247529020   10.81296408282962
H         2.88239880755538    6.11437104239323    9.90607054258240
H         1.96798100341911    5.10984845417974   11.03589935400775
C         0.68338659073539    6.73851388430849    8.25178459737824
H         0.01979004060875    7.46567743348694    8.71433594308954
H         0.22307468311456    6.38855260154856    7.32304007789967
H         1.61722749412242    7.24077883602685    8.00570021693222
C         1.83017621389496    2.78114734984433    9.39323810953189
H         2.65238430372594    3.16093847454562   10.01064843836906
C         0.62873594362318    2.45843192078377   10.27365650502291
H         0.88490067308320    1.68531507088579   10.99735461334191
H        -0.19065962499088    2.09189365379556    9.66060259720743
H         0.27930875945122    3.33132178853330   10.81976288297156
C         2.28691081466450    1.52426648182353    8.65860365708667
H         2.42288553694204    0.69972430414882    9.35700856380536
H         3.22960643551989    1.69101718707165    8.14256312214017
H         1.53493383162081    1.23530142967809    7.92448355628846
C         2.42192677523702    2.46198721564363    3.91173895643515
H         1.70122873606893    2.50403713943923    3.08545871032262
C         3.83067434918580    2.41039348822733    3.33279314003562
H         3.95431602118157    1.49355998124055    2.75743040744817
H         4.57950038388480    2.41507074520283    4.12109018854230
H         4.01993811695240    3.25044920202999    2.66951491863786
C         2.10889940545277    1.21214559003586    4.73368952895108
H         1.98115306851490    0.34383224648862    4.08965150134929
H         1.18873055446851    1.36737785902302    5.30171173925941
H         2.90981117974841    0.99404206182677    5.43684355286120
C         2.47601761522063    5.37840186443645    3.84414902896710
H         3.53118986973201    5.30127592009248    3.56114602849667
C         2.24960071328159    6.67144308948343    4.62122519521851
H         2.35748249141673    7.53840121522365    3.97109411891299
H         2.96198949841775    6.76732347789912    5.43703759756693
H         1.24257315758086    6.67381133827997    5.04014351188190
C         1.59853832411152    5.35578142860527    2.59710321116336
H         1.74415903753481    6.26251633625383    2.01165740719735
H         0.55004996975839    5.30016252606756    2.88656688935847
H         1.82832981462443    4.50291012236243    1.96277859099848
C         3.07152502837841    4.57465610880303    7.51728766600056
H         3.04870116875966    5.66044823776705    7.41369191645313
H         3.83094140723197    4.31872011848835    8.26156864864564
C         3.43074289540465    3.95030033559959    6.16700475348956
H         3.69613997758207    2.90260863581221    6.31752113102216
H         4.29375517725502    4.46245653988142    5.73163760246503

