72
CSD_code = MOSVUN | q = 0 | S = 0 | Stoichiometry = C29H36BrMnN2O3 | MND = 6
Mn       -0.00506614811473   16.21048441311865    4.77286774841473
Br       -1.23071698688653   16.21055059259709    2.59200273124223
O        -1.83110241804127   13.97792470190624    5.33330318707822
O         0.35483398567672   16.21033872077158    7.67009503818396
N         1.37197908599619   14.93027926740367    4.08341920397080
C         1.46513937220953   13.52051991909884    4.24998398662387
C         1.01636314049169   12.64164392771652    3.25543600663490
C         1.08140232727474   11.27625783770070    3.50325472646710
H         0.71914805568989   10.58960918325375    2.75453548958216
C         1.60645494544968   10.78302657190249    4.67929075483498
H         1.64657999517280    9.71817249240210    4.85222899222784
C         2.10454276697555   11.65842287660737    5.62443957882933
H         2.55327850042175   11.26952005155092    6.52464498466722
C         2.04570006183084   13.02992175376959    5.43054377310830
C         0.47136376559109   13.11691967495117    1.92986434124959
H         0.48997145598816   14.20741624390559    1.88871578149729
C         1.34089221031176   12.60385901859699    0.77878323027541
H         2.37811284010355   12.90906088883104    0.90964035133850
H         0.97761214202173   13.01127514312152   -0.16144863788411
H         1.31189086024532   11.51898072688030    0.71628350443328
C        -0.98201112698550   12.67563343631774    1.74906960705333
H        -1.05859572118379   11.59478928673129    1.66154799432011
H        -1.39319828697895   13.13138441022865    0.85241040598671
H        -1.58494941222154   12.99651984614855    2.59462588807856
C         2.68608452472386   13.95220716942208    6.44344497667883
H         2.37765986269062   14.98286287299651    6.23191222363445
C         2.26127171330073   13.62519684897802    7.87506365862870
H         1.17859091449021   13.54691572046397    7.94213807468846
H         2.58970553184476   14.41452715080638    8.54754768881514
H         2.69847563599998   12.69006138478949    8.21440353782408
C         4.21022856298106   13.88787827224242    6.30142163863037
H         4.56850847413875   12.87762976380974    6.48478543972760
H         4.68199158560772   14.55781703812394    7.01696147980988
H         4.51721224257394   14.18215165351753    5.29911113252106
C         2.26984026777290   15.50286113173351    3.33510125835117
H         3.02432413499067   14.92991360610441    2.80291951976292
C        -1.13074913973912   14.86035330627736    5.13210830432089
C         0.32986969417435   16.21041338807223    6.51921150640954
N         1.37196008492587   17.49071700037186    4.08342386912398
C         1.46509975343623   18.90047817963763    4.24996703890604
C         1.01642945735775   19.77935273391301    3.25536803128260
C         1.08147989313005   21.14474103691675    3.50317896715717
H         0.71928990098883   21.83139070106817    2.75442838846515
C         1.60646274765240   21.63797489026401    4.67924524526240
H         1.64662036781003   22.70283050934417    4.85216684332663
C         2.10444634513369   20.76257743245732    5.62444710961138
H         2.55312975113396   21.15147646729166    6.52467983117465
C         2.04556542862103   19.39107847841609    5.43057323827921
C         0.47152026355886   19.30409222027024    1.92975472057561
H         0.49009640546110   18.21359600210755    1.88859486122177
C         1.34116221528662   19.81713487513132    0.77874871124312
H         2.37834643163028   19.51179628446624    0.90960515526983
H         0.97785384921108   19.40984658362940   -0.16152612450503
H         1.31229237584140   20.90202084687267    0.71634476947167
C        -0.98183156014695   19.74542275680338    1.74885518012252
H        -1.05837768850176   20.82626740158915    1.66131081472103
H        -1.39295285711563   19.28967342207869    0.85216713456512
H        -1.58485560543377   19.42456027918015    2.59436300117778
C         2.68578384598222   18.46879270565803    6.44358098782337
H         2.37740225034158   17.43813667365901    6.23198675091122
C         2.26068796463700   18.79579700872631    7.87511632274668
H         1.17799218921087   18.87404908445351    7.94196279802752
H         2.58900360567108   18.00647971092855    8.54767531073389
H         2.69779245964547   19.73095032712386    8.21453638697236
C         4.20995363913778   18.53311385347283    6.30185822766683
H         4.56821712560647   19.54335671725902    6.48528669475627
H         4.68157500535488   17.86316851983072    7.01748749020705
H         4.51711750070419   18.23883170340342    5.29960764892994
C         2.26982997859996   16.91814867996324    3.33510548754648
H         3.02429380047455   17.49111110695320    2.80291096752655
O        -1.83111957521111   18.44311181780308    5.33304254334665
C        -1.13080676671930   17.56062369610659    5.13197648832897

