77
CSD_code = MOSWIC | q = 1 | S = 0 | Stoichiometry = C31H39MnN3O3(1+) | MND = 6
Mn        1.12049255195308    1.83657125351985    5.15472819351917
O         3.65490305776322    1.39623057366898    6.58288726699606
O         0.00387858619758    1.11065818729076    7.76175238465096
O         0.40522541854542    4.43864232781203    6.32049712256388
N         1.31049920678808    0.03841685865902    4.20837925818560
N        -0.58103361036537    1.77970416485942    4.08748498211936
N         2.07527646299745    2.66566136233806    3.71440710446769
C         0.37307755348277    1.29379868122996    6.69593377667384
C         0.72763998630971    3.45718491458078    5.83798503199193
C         2.68517257264323    1.60315958392255    6.02131782034175
C        -1.71502164113877    2.63149191759177    4.21149430968507
C         2.36857052342006   -0.89764733388349    4.31454483822443
C        -1.78555789351486    3.82833074016348    3.48993759093616
C        -0.66666361943665    0.78084836939450    3.27100574577314
H        -1.53145710690208    0.63188772862797    2.62999340182558
C         0.40444537056304   -0.16134107106802    3.30743023280545
H         0.41665858926558   -1.03200492564452    2.65714314067398
C        -2.75812442014443    2.23977044319998    5.06569207189549
C         3.34641699563339   -0.98245973742787    3.31022362216095
C         2.41468754328543   -1.74657285126906    5.43303275834840
C        -3.89498814778842    4.30576778633566    4.55248601090476
H        -4.73932629276393    4.96177300574342    4.69311601002883
C        -2.75691595364286    0.90806743761133    5.78302488769163
H        -1.75481746000709    0.46196495669735    5.72133477462520
C         3.47727035699245   -2.62796788523465    5.55806401296122
H         3.52082953358629   -3.28613728337871    6.41037586017108
C         2.67942548975301    3.30461902217732    2.97257011933982
C         3.32365952425309   -0.12364050957302    2.06502607198194
H         2.48234749362773    0.57820695096186    2.11175796324196
C        -2.88195079719711    4.65687480892692    3.68296220741006
H        -2.95057849420081    5.58315960637060    3.13558754300871
C        -3.83601659371086    3.09955393714415    5.22199535251519
H        -4.64564011802180    2.81582622723673    5.87412868093637
C         4.39116148621564   -1.88045325173408    3.48271644633319
H         5.15511752906664   -1.95348786771344    2.72550026515146
C         4.46930080482595   -2.68876193682112    4.59898305270590
H         5.29132517862008   -3.37776862907923    4.71130550229712
C        -0.74082450724489    4.19889739805989    2.46099335176506
H         0.03750143662292    3.42688181870832    2.44993077332378
C         1.28665640831357   -1.79603887914807    6.43661047335013
H         0.58044730806181   -0.98519752817853    6.21653168276848
C        -3.10996626287983    1.05717022797451    7.26433091680003
H        -2.52825539768050    1.85262177578368    7.72387082313455
H        -2.89801618160838    0.12843997117732    7.78835298339578
H        -4.16428729837863    1.28073486372509    7.39674234240445
C        -1.37384318703232    4.23833907661415    1.06656777553419
H        -1.85073749666911    3.28877948619215    0.83217117317665
H        -0.61450720436746    4.43750977675174    0.31354325261212
H        -2.12551903535118    5.01954750766763    1.00442719858660
C         3.40938414662875    4.10737737694335    2.05232849922117
H         3.09400332343100    3.89212258645878    1.03109775113828
H         4.47635592411849    3.90519082461259    2.14872764576246
H         3.22678845862203    5.16043541958993    2.26995166552750
C         1.79220278414815   -1.61585020066175    7.86859467740450
H         2.37229250491956   -2.47557225098731    8.19039882803265
H         0.94990729712493   -1.50531487489838    8.54696468507916
H         2.41749910889399   -0.72928314439444    7.94944269847957
C        -3.74005144550999   -0.04775146011472    5.09835069102307
H        -4.74544768255242    0.36431713411010    5.11741431749077
H        -3.75048709354938   -1.00396919116142    5.61546204271089
H        -3.46416570428570   -0.22077901291694    4.05986943844696
C         4.61069639676673    0.69797029612884    1.95224030248153
H         4.76753927506933    1.28641082619597    2.85491974445702
H         4.55327785609041    1.36414830280551    1.09425263218798
H         5.47342961133271    0.05329945358596    1.81489745447227
C         0.52292038247039   -3.11651368587819    6.29368512377357
H         0.13095566687545   -3.23022968838987    5.28464878551162
H        -0.30929533280267   -3.14067366591798    6.99263893351767
H         1.17157287719599   -3.96210026195941    6.50447618324261
C         3.13504020360313   -0.99730648848036    0.82100721102546
H         3.96810205426137   -1.68373205575076    0.70122187962960
H         3.07572873665065   -0.37477472671216   -0.06880210568565
H         2.22189392880145   -1.58480687579651    0.89080789005045
C        -0.08297063752558    5.54004211774050    2.79108953333143
H        -0.82264357963115    6.33377196593362    2.83357998440079
H         0.64151925737956    5.79997405153728    2.02220151731649
H         0.42391343274830    5.49608416981676    3.75305382797186

