63
CSD_code = MOSWEW | q = 0 | S = 0 | Stoichiometry = C22H36N2NiP2 | MND = 4
Ni        4.65835401023966   -4.15373357630217    0.32065762005998
P         4.38907625767483   -2.49708487548838   -1.07373176428301
P         3.95508948506364   -5.63933000661813   -1.12978810268208
N         5.09089256625755   -4.79741888101594    2.02610247967871
N         7.34721870313722    2.35297917292031    4.43453499611624
C         5.33408367048556   -3.62965385220583    2.00840676290695
C         5.76460967146204   -2.38223043437759    2.54502229934974
C         4.82776652338247   -1.48091639130770    3.06724169573274
H         3.78116168085925   -1.74916531459723    3.07456931666661
C         5.23783248514216   -0.26516730161160    3.56197890707126
H         4.51865584095169    0.43316273339428    3.96499535837930
C         6.59389033330203    0.07733168161411    3.54300124814582
C         7.53307324419426   -0.82265602074676    3.02978990006337
H         8.57924164308813   -0.55346514381152    3.02305521652243
C         7.12283141672169   -2.03934145761710    2.53547833394415
H         7.84361791438480   -2.73633085643446    2.13229992494642
C         7.01115852314740    1.32997482323278    4.03708670357734
C         3.06026525518858   -1.34404279930680   -0.45626787865190
H         3.55635457696836   -0.73821587978301    0.31371445325823
C         2.43718723493772   -0.41443449498584   -1.48968473751961
H         1.66880068840679    0.19594177552513   -1.01679408453777
H         1.97112249570201   -0.97609351544857   -2.29599953628768
H         3.18050900183985    0.25401501130487   -1.91747131464242
C         2.01123950173493   -2.21204067549834    0.24114418622363
H         1.39234475847831   -1.61997595430416    0.91307666039927
H         2.50893101459125   -2.99900293685541    0.82518103383884
H         1.35749850330255   -2.69580157301771   -0.48224394954755
C         5.63366973045963   -1.36108884838523   -1.86863036641719
H         5.14104256887213   -0.76618853347873   -2.64592759569539
C         6.23540632374375   -0.43995806320813   -0.81217346878685
H         7.04196050107845    0.15386545723803   -1.23970174025279
H         6.64471902967503   -1.02926438529081    0.00767961432011
H         5.49193684365540    0.24315519887111   -0.40690448981162
C         6.72359269973086   -2.22354168653358   -2.49991612251498
H         7.54446790398523   -1.60420858616304   -2.85824562688920
H         6.33617586840922   -2.79282571870473   -3.34228891443745
H         7.11705480974680   -2.92244696640835   -1.76091621756858
C         2.21842887198871   -6.31678309239311   -1.24448669177823
H         1.63213156938181   -5.45421051809894   -1.59250637891405
C         1.72403039353874   -6.67911579926923    0.15370331487125
H         0.64292512889085   -6.80880309770043    0.16126708609036
H         1.98787409380119   -5.88656448154912    0.85472401502113
H         2.18152952010381   -7.60002321898253    0.50427296620309
C         2.02778725028187   -7.46038179443032   -2.23269362557823
H         0.96721228109657   -7.68904434460739   -2.32993334615690
H         2.53439682105204   -8.35969303283468   -1.89351852612276
H         2.40886795795644   -7.20368630472085   -3.21909743559607
C         5.14105322840890   -7.04427147901685   -1.41525886398985
H         4.95211049635660   -7.54139849297153   -2.37245235744153
C         6.53775039379322   -6.42263052153132   -1.39629074570696
H         7.30177651086315   -7.18785058150049   -1.27236604188183
H         6.60405866493167   -5.72959129318949   -0.54727988256576
H         6.75564723867514   -5.87331956375195   -2.30963601038852
C         5.01559004953605   -8.02408914529859   -0.25208383073719
H         5.82897402355679   -8.74810671357924   -0.27228070185538
H         4.07730668399260   -8.57152671666475   -0.28479152463455
H         5.06551364922548   -7.47097613022638    0.68661302578563
C         3.57995642134731   -3.27496654418441   -2.56368978985321
H         2.50317768029382   -3.27173718613398   -2.37711829031688
H         3.77453289119834   -2.68260757890828   -3.46195907302543
C         4.04450260290550   -4.72111860859007   -2.74944782763753
H         5.08504424547275   -4.73359085156477   -3.07597109128055
H         3.44168805140385   -5.22171403311702   -3.51184917314493

