53
CSD_code = MOSZOJ | q = 0 | S = 0 | Stoichiometry = C28H20MnNO3 | MND = 7
Mn        8.76228145389769    5.64952851542185   11.80550696238212
C         9.64582111293682    7.11104754090544   11.28721760050633
O        10.16190684202618    8.07013103597021   10.91578451953751
C         7.97036590188653    5.59145639984524   10.19722191532341
O         7.49599115049729    5.57314535182427    9.15146071407200
C        10.14955918360181    4.57903401139878   11.47312534294099
O        11.03582995384765    3.87800631577266   11.23586017899916
N         7.56622134881248    4.19934671692065   12.45312480295613
C         6.57417475746339    4.85019200593371   13.07566019664712
C         5.50815253432701    4.18834587628558   13.68499236293538
C         5.50390741724495    2.79748543839530   13.61437103660723
C         6.53103186708426    2.13322747225666   12.97032600674880
C         7.55385131280859    2.87404187577592   12.40284809964393
C         4.41448588545709    4.90359547590023   14.41410101161167
C         6.76832889354670    6.32297563657790   13.05839554379817
C         5.72021868115739    7.17147319944184   12.68451048488886
C         5.85662154994724    8.54022058549875   12.75139596476786
C         7.05021476339504    9.09017611749239   13.21501251344956
C         8.09596075706396    8.28190347384063   13.59085732577543
C         8.00302202264342    6.87061773167408   13.54132407532989
C         9.12658954949753    5.98525947971672   13.88319092054260
C        10.35293727386743    6.67295632813963   14.43540218048554
C        11.56774641956729    6.70858176989388   13.76420650204802
C        12.66989176043406    7.32843201410759   14.32827847363893
C        12.57795266376501    7.91753620649476   15.57645687243853
C        11.37590023979420    7.87631611830983   16.26280665869574
C        10.27726040434953    7.25506995217280   15.70037709594577
C         8.82503877455736    4.85011815480331   14.81769850660231
C         7.77310090240171    4.92069670982303   15.72909098470690
C         7.52293781438208    3.87860304556283   16.60356455185415
C         8.32732380369384    2.75341076435296   16.59542001916747
C         9.39671893852129    2.68545377045899   15.71655254165648
C         9.64561997997621    3.72361061197322   14.84083788403871
H         4.69794865001250    2.24491494650572   14.07434893322209
H         6.54752975437783    1.05697101698243   12.91308557689587
H         8.37961221841963    2.39670875612918   11.89188946283282
H         4.11619773801817    4.32721163822788   15.28770983556264
H         4.72832675649990    5.89446179304137   14.73318796783186
H         3.53865702291898    5.01257851923792   13.77341237400024
H         4.80332909090098    6.73533303115318   12.31222607033919
H         5.04271111596573    9.18154136222295   12.45003834006216
H         7.15408063866971   10.16293608217806   13.28285686234048
H         9.00951157150910    8.72475789757561   13.96250674212643
H        11.65274674169919    6.24410385926688   12.78964594906825
H        13.60432139898961    7.34908810351776   13.78717082418251
H        13.43738856413298    8.40258282861236   16.01525132163151
H        11.29363355351206    8.32796167791127   17.24113694361245
H         9.34396376859647    7.22369613017715   16.24643640980814
H         7.14729437638564    5.80403954134770   15.76184437077468
H         6.69796678491833    3.95111025026153   17.29850955414002
H         8.12877949313812    1.93872705432066   17.27608475837706
H        10.03815831075479    1.81626980464718   15.71326602521121
H        10.47567653612675    3.66691000374350   14.15011182723763

