52
CSD_code = MOTCRH | q = 0 | S = 0 | Stoichiometry = C15H24N3O3RhS6 | MND = 6
C         2.81910637923995   -2.80262700255568    4.11760372434577
C         2.62763071733452   -5.21368786039181    3.82583807097670
C         2.58648766339336   -5.65273263264912    2.35596282903129
C         4.72706359301022   -4.12515310441381    3.37721634966954
C         4.61774230100042   -4.60178541177503    1.92246743244389
C         2.70155951411810    1.49985573202991    6.44665975819954
C         3.36441518532887    2.01405039218990    8.73649687376703
C         2.38364400381607    2.90346446568864    9.51199860012541
C         3.48789895395578    3.72863668266536    7.04966444904815
C         2.50229190307359    4.55997053498771    7.88199247389226
C        -0.69426512438367    0.38317246891415    3.06626037684043
C        -2.99121813864333    1.19848224336205    2.96430932318400
C        -3.15219579369611    2.65034663380522    2.49454100906875
C        -1.80161252087642    0.73777458366199    0.92131197855242
C        -2.00611112760734    2.20460260191620    0.51953013263330
N         3.39235121897398   -3.98940823061040    3.91781335206521
H         1.62094589108686   -5.04665114911742    4.20872542846749
H         3.12918326564998   -5.97918160906864    4.42593067011170
H         2.03057836001934   -4.90293274297431    1.77273489008768
H         2.10072362662344   -6.62403367529656    2.25628588417801
H         5.26505538726411   -4.87070319276593    3.97086775787082
H         5.24413396930211   -3.16730132568618    3.43263306912666
H         5.60511082734141   -4.81184974978208    1.50983631017618
H         4.12921171221714   -3.81823497155306    1.32362407227870
H         4.38841521659037    2.22498263301783    9.06106876418460
H         3.13835832339746    0.95956126586568    8.89426200297175
H         2.50674808565156    2.76675255314541   10.58694316174369
H         1.35440861358937    2.64032970978131    9.22461470723387
H         3.35053321861914    3.91677883319828    5.98488391619301
H         4.51426226707186    3.97591183460115    7.33900433232094
H         1.47704262138363    4.35011371018533    7.54109731871547
H         2.71013459482724    5.62522145371872    7.77490588220667
H        -2.91222394484225    1.14870555306359    4.05021743667476
H        -3.84867364042956    0.60626489521844    2.62884584950566
H        -2.31705095487150    3.25051479021017    2.88654314967928
H        -4.09631837913572    3.06707318105701    2.84717148208147
H        -2.63195917532560    0.13318375075613    0.54239795886391
H        -0.85946984250950    0.35704485706599    0.52713924405423
H        -2.11977960179277    2.29522582327400   -0.56133393420250
H        -1.13531219037085    2.79250203352230    0.84698658216170
N         3.25869680523695    2.32848538868313    7.32884614502896
N        -1.79488290247903    0.65055125567733    2.36473913685957
O         3.88818011550182   -5.80406692152983    1.83932364319696
O         2.62769967954799    4.26663316422746    9.25386183999255
O        -3.18537977047214    2.72393036694360    1.08836488300061
Rh        1.60956413407066   -0.29159823838471    4.55696699465800
S         1.18183245571204   -2.63237590587135    4.53912201112185
S         3.67522147697713   -1.33865882320264    4.01389375816121
S         2.24895537417325   -0.09040347307439    6.83788159014632
S         2.42025932408858    1.93276207492413    4.82745000949127
S        -0.64598554884467    0.45055400784343    4.76359294898805
S         0.76549187709982   -0.09275345447649    2.33810436883682

