33
CSD_code = MOTCIH | q = 0 | S = 0 | Stoichiometry = C12H16BrFN2Pd | MND = 4
Pd        5.56084598328249    5.95585204505866   10.95880268105815
N         6.52194902701433    5.13504716956393   12.62869654085783
H         5.87289914145653    5.33302359531806   13.40030047203777
H         7.41271026590501    5.58264182954557   12.86554195646662
Br        6.55979363042657    8.13087636375797   11.43364223690267
F         2.35922331169747    1.81327162492240    9.40852024057101
C         6.66898254381343    3.67785867863097   12.46334344330829
H         6.74730755872250    3.16617813691245   13.43343120820262
H         7.59593171100244    3.48703859841354   11.90701038887242
C         4.84465715776936    4.06263178119623   10.80433291023976
C         5.49505274514652    3.15877205870404   11.66383520888784
C         5.09298089213767    1.83494032779633   11.76025349596450
H         5.60986226714105    1.16251365474354   12.43051054930890
C         4.03484723772705    1.36697866440712   11.00184292587956
H         3.70636092111760    0.34172210786504   11.06005524923965
C         3.39710987059510    2.25520044923281   10.15811134938303
C         3.77632657776221    3.58223081658412   10.04985426906910
H         3.22961223063811    4.22122244671419    9.36920592878735
N         4.24879160473754    7.38341189154400    8.64628648475038
C         4.68683052435749    6.70056932014349    9.47903376409468
C         3.81928002746618    8.34590071284727    7.71005511059811
C         2.80046125471755    7.69115574050197    6.77523024220888
H         3.25081601497204    6.85375008905789    6.24682333092291
H         2.45261397196859    8.41771562084284    6.04621772722371
H         1.94509630494547    7.32606830195313    7.33949464055424
C         5.05622766782616    8.82068064345519    6.94202890832982
H         5.79073577991536    9.22982558543541    7.63207811366320
H         4.77306555044538    9.59170938448158    6.23093686710823
H         5.51071395707658    7.99315636992408    6.40181531152701
C         3.19248049901870    9.49978143214557    8.49830944766072
H         2.32520458542349    9.15367555467379    9.05619750375694
H         2.88059918859912   10.28472221963782    7.81500177288602
H         3.91492999518184    9.90957678399138    9.20069971967687

