58
CSD_code = MOTGAF | q = 0 | S = 0 | Stoichiometry = C25H28Cl2N2Ni | MND = 4
Ni        2.70726175336132    2.78476694406233    8.47620097666348
Cl        3.93238046039997    1.84255084097100    9.83906450454977
Cl        0.95532098738018    3.43081004863443    7.61309470726865
N         4.02688386775439    4.60234176304024    7.90603925325891
N         3.48414384547477    2.14656473134760    6.98508777943244
C         3.50881631540137   -0.98344600212635    5.05275166035291
H         3.99672580822438   -1.40080009384719    4.18455159727834
C         2.25752836626675    0.11308563573813    7.29249740198957
H         1.77295108470421    0.56012012404463    8.16380790235440
C         3.19409899162292    0.88796386829799    6.57868487000616
C         3.82798322848993    0.33453764136906    5.43483836622731
C         4.35421933648393    2.90022530042742    6.31700908869626
C         4.59862697132321    4.25708123401084    6.81573461803787
C         5.51157160558698    5.14198162914311    6.02059059322578
H         5.91983723263573    5.91416889693993    6.67627273327427
H         4.91964041809498    5.64088335384983    5.24686553550873
C         5.02095765683005    2.41467890202226    5.16537707702890
C         4.75327008794300    1.13836472941762    4.74213639131922
H         5.25097291461923    0.73724587882143    3.87092841700972
C         2.60257856877934   -1.71587940881272    5.76906959025485
H         2.36544667146240   -2.72605460951249    5.47188878423955
C         1.97137998297271   -1.16339974512842    6.89540935144383
H         1.25492327685305   -1.75404297745534    7.44478995422460
C         5.99226075470261    3.29237511964375    4.43302060665171
H         5.45699166229690    3.81026589562301    3.62985410574489
H         6.76234186133862    2.67394374594021    3.96849001935440
C         6.61711371703781    4.32258868920407    5.36563664609426
H         7.28687924323269    4.97704861743942    4.80603787204492
H         7.20203669933644    3.81466553444160    6.13544446393711
C         4.18651090954934    5.87987443788333    8.46774843892182
C         5.10012853448566    6.03955356087151    9.51859630739999
C         5.23068407627249    7.29064262554239   10.10100133776869
H         5.94108650281143    7.43195814582415   10.90104986773095
C         2.36921751770282    6.78187357482268    6.93357068332391
H         2.41097300321039    5.75555466375775    6.55692410144513
C         4.46490827284440    8.35831453944853    9.67281098266035
H         4.57600915350195    9.32641110685818   10.13839837275271
C         3.55145949771420    8.18100960320682    8.65195565070433
H         2.94811551031403    9.01592164590932    8.32994864129671
C         5.94314818221241    4.87768613706656    9.99154726329281
H         5.61166549283918    3.97153967415281    9.47553102608640
C         3.39790673423909    6.95108593896326    8.02812150229219
C         2.63917636290540    7.73833784200136    5.76932530982203
H         3.66396123713333    7.64291129360122    5.41417601334061
H         2.48267862437526    8.77072050446703    6.07167570545769
H         1.96406098066764    7.51995262035767    4.94471623970586
C         5.75691849111529    4.63912474915373   11.49027711093258
H         4.70240430671928    4.50256650129371   11.71598772964130
H         6.13429164741174    5.47246378859216   12.07812850495403
H         6.28638910445335    3.73709167564032   11.78719167591055
C         0.96195431239319    7.00041200875262    7.49299776197723
H         0.76310750425969    6.28513323198419    8.28620067643415
H         0.22391506141491    6.84908796127009    6.70893646198676
H         0.84819335293585    8.00553170947111    7.89208842627588
C         7.41842673485945    5.11047780589816    9.65737973526336
H         7.55463549656266    5.26539044244999    8.58814454701594
H         8.00875043940924    4.24786629114638    9.95803064958922
H         7.79857958510371    5.98606963214348   10.17926440853706

