47
CSD_code = MOTPIV | q = 0 | S = 0 | Stoichiometry = C18H20ClMnN2O5 | MND = 6
Mn       -1.85633201310271    6.45110717311169   12.12620067535657
Cl       -3.41541670342985    4.92232808047045   12.48334057205931
N        -2.91200506310609    7.33528534496155   10.82743875721260
N        -1.30341182464355    5.38908502324301   10.55746506950183
O        -2.52922330263064    7.49094530868014   13.43329987736453
O        -2.49244044247982    8.88838002335913   15.65807674251099
O        -0.47605069933259    5.68482664279393   12.99153614577998
O         0.78297377300652    4.78621048593299   15.12443287045517
O        -0.24651149320722    8.13729766270656   11.89820774553190
H         0.44290201829823    7.80074700998294   12.48570060095778
H        -0.64803897814254    8.88641926363822   12.35460485362386
C        -3.48296169364331    8.49861389383415   10.96348616971111
H        -4.02273639077000    8.92120704228082   10.11493623142088
C        -3.49453110355667    9.25550412093761   12.16279382381441
C        -2.98528916804103    8.68971720354903   13.37356801896174
C        -3.05461582267515    9.48393566329320   14.56869680147190
C        -3.61448256305431   10.73725522196305   14.54079808379380
H        -3.66898210167870   11.33586250715783   15.43628498947671
C        -4.13716376026104   11.25969520295165   13.34824701815157
H        -4.58280893945442   12.24230303830201   13.36129688696004
C        -4.08300708195110   10.53768381382224   12.19094775078813
H        -4.48430190505331   10.94066047969336   11.27284066387023
C        -2.58776846962608    9.53979055453472   16.89762258790303
H        -2.13342021672430    8.86449674682379   17.62086224461359
H        -3.63046733771144    9.72183185323514   17.17716091713855
H        -2.04205974315342   10.49055602604240   16.89711622530612
C        -0.71354971051980    4.24112439277953   10.59238207279068
H        -0.63398007903812    3.65200005669643    9.67639530956712
C        -0.09901994117520    3.69229359581357   11.75778406901417
C        -0.00285773203377    4.48124362779250   12.93472457248961
C         0.69865754487236    3.94412838221820   14.05654768958978
C         1.20627068158648    2.66420159065315   14.00370808631018
H         1.70819082526118    2.23830420118684   14.85824414216402
C         1.08778646140791    1.89743382799025   12.84146329872434
H         1.50013156326475    0.90035207339675   12.82818734805402
C         0.46321165167149    2.40536868706060   11.73333590301736
H         0.37996922597042    1.81784304184986   10.83135361631360
C         1.28812151072252    4.27872921426276   16.33331585594389
H         1.18689847601187    5.08582519836883   17.05727394197966
H         2.34522544726878    4.00336308359071   16.24458002010445
H         0.71432714094659    3.41168761529957   16.67514710482433
C        -3.11561322513966    6.60833398331094    9.59235405553110
H        -3.41160086659686    7.26785971469525    8.76799664659015
H        -3.90200476354259    5.86288935167220    9.77341773033222
C        -1.80381729940426    5.87734874644710    9.28949836074356
H        -1.95517323028404    5.06407247889471    8.56996263915085
H        -1.07622265512713    6.59035174871772    8.88136521302821

