57
CSD_code = MOTWOI | q = 0 | S = 0 | Stoichiometry = C20H32Br2N2Ni | MND = 4
Br        2.43418186725156    2.41611551457018   16.01464245105988
Br        4.78545410449915    0.26473428437650   15.14944636394451
Ni        4.60569241602152    2.41398379630796   15.43060643819366
N         4.77458464602842    4.28835605491463   15.15753853408772
N         6.43145653457821    2.82147555158562   16.71574075706310
C         5.93004636143742    4.76333170210915   15.37874387414290
H         6.18527268896596    5.78379249760607   15.08811682810775
C         7.03963903571766    3.91555478669714   15.94016810907845
C         7.75202056582225    3.32556083639830   14.70732021967198
H         7.10926430908083    2.59205801341031   14.21669199558321
H         8.68095874120188    2.84012967525281   14.99399418541976
H         7.98136159448119    4.11352385107875   13.99209056820442
C         8.01747623854153    4.80600976894151   16.72169449807424
H         7.49790488122370    5.40853602451662   17.46386987120583
H         8.52451290938138    5.47756833034819   16.03286286717352
H         8.77238655394965    4.20561694099429   17.22295286409251
C         5.86065072853992    3.20998564030469   18.01502583783322
H         5.01863355843455    3.89657626225023   17.90416049725937
H         6.62238424264229    3.67383547039774   18.65690375942503
C         7.32994046919819    1.70924298786890   17.06248194380905
H         8.29946861183025    2.08837833207925   17.41134337365242
H         7.49639204741675    1.06617085118684   16.19844294530622
C         5.44938753107535    1.86191913861815   18.59411326393029
H         5.28445393613825    1.90342122906074   19.66806081091667
H         4.52477434904105    1.52568374516434   18.11591320604243
C         6.61938979461614    0.95133055572576   18.19711009516429
H         6.26282182269932   -0.01810375574742   17.85590770055072
H         7.29891630665286    0.79159519373880   19.03327551805155
C         3.76416910213396    5.09164196664732   14.59306594589064
C         3.28532309668833    6.21386990337192   15.28124679311942
C         2.27994845339767    6.96227285260575   14.68457388992407
H         1.88188718035684    7.82027691040679   15.20286358393173
C         1.77939980202902    6.62866829582254   13.44236643552136
H         1.00896830627707    7.23504515109417   12.99081424396996
C         2.24801828288786    5.50642365979758   12.78586353936819
H         1.83830760728035    5.24345102342089   11.82433090775056
C         3.22753704332387    4.70884401697160   13.35455373196221
C         3.74655299621527    6.56971810274783   16.67593869488305
H         4.60588704756366    5.94867291352939   16.95162698723580
C         3.73103854853933    3.47932399355100   12.63098223871579
H         4.23346880600028    2.80381131973570   13.36299298485575
C         4.19496568215072    8.02910178767609   16.77412758672322
H         4.96062332900325    8.24951263429868   16.03176416353791
H         4.60546609300821    8.22520262551799   17.76248100781397
H         3.36154957443188    8.70721417766286   16.61505838563266
C         2.62010050381045    6.26492067180115   17.66794360010404
H         2.31450943796994    5.22406838399905   17.58256322571927
H         1.75351821386557    6.88920023326384   17.46838403369794
H         2.95446504490900    6.45072921561926   18.68657913484998
C         4.77247563740113    3.88068844492716   11.58432792433877
H         5.60179177048507    4.41774807007715   12.04411168911930
H         4.32107676977883    4.52933858492931   10.83625443281305
H         5.16619293841991    2.99794866851081   11.08507885167556
C         2.60000074988529    2.66538486216832   12.00475254555510
H         1.82183826776886    2.47840133407385   12.74112740171904
H         2.98505457949988    1.70742299709970   11.66191209971243
H         2.16343828844544    3.17861391890680   11.15199456282572

