24
CSD_code = MOTXAV | q = 0 | S = 0 | Stoichiometry = C7H8N5O2SV | MND = 5
V         1.81322840440225    2.82039470746565    1.62304324469236
S         2.01234363156121    3.78904992580852    3.76110289330733
O         2.47157559788967    3.99531809494880    0.90317263673570
O         2.72526504508316    1.62032516878206    1.87584830714011
N         0.85777394155267    2.08799541909745    0.03682166745140
N        -0.12019468080298    2.68542327119157    2.26982839709633
N        -0.53983266227926    3.00466145485425    3.50598157060015
N         0.06812673849941    3.85775509821727    5.53635068565312
H         0.75102215302490    4.35592803862189    6.07909731321905
H        -0.89806103918734    3.86851276584260    5.81443675280818
N        -2.28768363971676    1.91450585090312    1.81529241365835
H        -2.78096369488245    1.14537170963051    1.39463687938588
H        -2.45349235675400    2.06147326105465    2.80234379669560
C        -0.44741871055393    1.80832354159593    0.15615477606802
C        -1.17624749423330    1.27257397460272   -0.91090210260990
H        -2.23121375126814    1.07271439925624   -0.80692438187930
C        -0.51942294205663    1.02262996958404   -2.10039180562787
H        -1.05608578367192    0.60999563136417   -2.94156271000672
C         0.83663212471788    1.31017026732792   -2.19988957377680
H         1.37781805371278    1.12392290051092   -3.11310795956223
C         1.48806483396096    1.84925320054826   -1.09831908975897
H         2.54285972514605    2.10160021827682   -1.10969659060109
C        -0.97692629541450    2.12161268215994    1.46742505357059
C         0.39293280127062    3.52618844835459    4.26995782574068

