55
CSD_code = MOVBUV | q = 0 | S = 0 | Stoichiometry = C24H21N5O4Zn | MND = 4
Zn        4.79943262550814    2.81587496799772    6.62616463249485
O         2.74525642689618    2.44537884292673    6.30885745579465
O         4.22498446103869    2.51961253333950    4.70637915483265
O         6.76483853164265    3.26979266109177    6.45751058787517
O         5.21569124055263    4.78350385585691    6.70478063816403
N         5.04452514904043    0.70334868535235    6.71071757146507
N         3.36481811467607    0.50936087917094    8.32842517471181
N         4.45784723634244    2.55887579533841    8.70948365775933
N        -0.76475041798744    0.30284436302858    1.44767630635352
N        10.28962120940339    8.55022059033358    5.93955578898503
C         5.65756432204546    0.22158017057920    5.63404544284578
C         5.21401028406992   -0.88964428179593    4.94677662606111
C         4.05803027517320   -1.52102799973749    5.39302880774679
C         3.42974584536688   -1.04442056813726    6.52195575063924
C         3.96084301468873    0.08285980794080    7.16598730916471
C         3.57713062730445    1.63379111531824    9.08440954654391
C         2.85004442732892    1.75556892096997   10.28078983517655
C         3.07320183921786    2.84140952732120   11.09545946317784
C         4.01948998524488    3.78487959190153   10.70951696663014
C         4.67085505971931    3.60074171951788    9.50757558353791
C         3.05405750013284    2.30008815349034    5.10131684462761
C         2.04353572633793    1.80404795010823    4.13808608160902
C         0.73082798872736    1.58027473269691    4.54275564365880
C        -0.20462390015508    1.10581942676747    3.64997328689146
C         0.15248237648399    0.83888820052002    2.32557152985844
C         1.47333436005983    1.05885352656506    1.92516001984674
C         2.40453817538215    1.53537250334311    2.82058666875811
C         6.41970117705437    4.47531485822766    6.50285510329788
C         7.43175019113889    5.54336978486647    6.34697651451686
C         8.76929219623993    5.21937304459507    6.13283146438220
C         9.71140027358137    6.21131147625005    5.97642059462243
C         9.33921966858585    7.55745196653803    6.03154869834474
C         7.99636727324182    7.87835881862354    6.24901909974333
C         7.05690137750469    6.88363715616341    6.40431253732006
H         2.55661887094243   -0.03209291559132    8.60413642108591
H         6.53169122193541    0.77707866264670    5.32924727766608
H         5.73874470390777   -1.24180615927949    4.07413091426823
H         3.65633146650261   -2.37368091440322    4.86578732132682
H         2.53169876137105   -1.51086040016050    6.89862252397816
H         2.12418741012365    1.00175582450774   10.54749871568103
H         2.52329658350071    2.95529085330194   12.01796441515324
H         4.23175362929649    4.64573087897590   11.32165007526230
H         5.39489752609375    4.31581797945877    9.14785660545007
H         0.46174991157529    1.79666583208110    5.56561795238617
H        -1.22586512756429    0.93913743137176    3.96390761338749
H         1.75399670187139    0.85384272134255    0.90141161918442
H         3.42525241519918    1.71495330931332    2.51995302683076
H         9.04674948092226    4.17762694606687    6.08735888487734
H        10.74900297977645    5.95875074150906    5.80725899566604
H         7.70383114148793    8.91838418658113    6.29100954746832
H         6.01679757885737    7.12248113994384    6.56483717228101
H        -1.73653362930434    0.42651082081932    1.68093910191581
H        -0.55167025001429    0.38983199804614    0.46730864865342
H        11.16845684251063    8.29735285228709    5.51844042044555
H         9.95864713940812    9.47341543414616    5.71195235957999

