89
CSD_code = MOVCOP | q = 1 | S = 0 | Stoichiometry = C42H40N4P2Rh(1+) | MND = 6
Rh       15.01968588633426    0.00002775340180    6.41636037098702
P        15.19445602995779   -2.27258716818340    6.30086621371085
N        16.60140352292209    0.18142478038271    7.88200486376888
N        18.64444404362488    0.29044529597831    8.66274703807114
C        17.86680996144971   -0.07008396201170    7.62847440415897
C        17.83316525586973    0.80423154431876    9.62742413251796
C        16.56774472821814    0.73147092795350    9.12845955430453
C        16.68808567751693   -2.96691405431425    7.08551140877730
C        16.85027036804073   -2.84840189247943    8.46481374845427
C        18.00844264296024   -3.28779621927653    9.07769028058203
C        19.02988322152471   -3.83410870872773    8.31638899489127
C        18.88774411269722   -3.93224905512789    6.94215093912838
C        17.72668784118814   -3.49679678643529    6.32669754540233
C        13.80808857477168   -3.18489151894961    7.06817984804881
C        12.54936853269707   -2.89456287609094    6.54494777437067
C        11.42181287948800   -3.51405772435711    7.04619673283333
C        11.53946970810457   -4.43427144260257    8.07680605870491
C        12.78891188391264   -4.74172316644839    8.58612845525416
C        13.92275963915754   -4.12356897806857    8.08473802477535
C        15.20060560741322   -3.10443645980979    4.67956826897612
C        15.31352986079138   -2.38579790683520    3.49727300570289
C        15.31711932009964   -3.04695847477617    2.28073298310383
C        15.20718819208657   -4.42635682010188    2.23980091319256
C        15.09467933838400   -5.14850223008948    3.41853879327804
C        15.09033810245305   -4.49354519540447    4.63477185042165
H        16.06993692759003    0.08883399203790    5.34768702772942
H        19.64651541897805    0.20305604014964    8.71448926265402
H        18.24575799504223   -0.51375720042677    6.72845901175652
H        18.20238947931315    1.17335624328021   10.56082142433576
H        15.65372672353834    1.04025363915975    9.59479514468457
H        16.05947851375359   -2.41077551483452    9.05925787458825
H        18.11576051046037   -3.20513939900151   10.14968153828939
H        19.93366339233217   -4.18100154734544    8.79372103130760
H        19.68416304507002   -4.35176372584355    6.34593528305544
H        17.62442733284768   -3.57196853596584    5.25357872473873
H        12.47246025343034   -2.18162482224959    5.73316755031145
H        10.45056306154191   -3.28787826941795    6.63080852181120
H        10.65998483513004   -4.91962250987109    8.47186413055039
H        12.88554251269927   -5.47266058652365    9.37513311437258
H        14.89219416789686   -4.38916367995119    8.48048772188343
H        15.39831287075879   -1.30911694372284    3.53969061989560
H        15.40538199457700   -2.48416727771028    1.36358883266960
H        15.20844028215546   -4.94123864144703    1.29118933487828
H        15.00937010925982   -6.22430840032912    3.38780646208569
H        15.00412246964808   -5.05603407591872    5.55482894273834
P        14.84519427244852    2.27260781921564    6.30082615814416
C        13.35179684045915    2.96739888460360    7.08547389830844
C        13.18938756712471    2.84840296344289    8.46470806925913
C        12.03134885089810    3.28810693261762    9.07761015294664
C        11.01027459366334    3.83521951627279    8.31639605238889
C        11.15264853317203    3.93388142566694    6.94222218377152
C        12.31357628915090    3.49813161692949    6.32674028541193
H        12.41602641521496    3.57371075339880    5.25367306814600
H        10.35651949926414    4.35403939600725    6.34607642226314
H        10.10660120054766    4.18234361308386    8.79374815271969
H        11.92384436213251    3.20505705404170   10.14955086677019
H        13.97988661559357    2.41013620607766    9.05907245465128
C        16.23180363348581    3.18457117297490    7.06811202479626
C        17.49038881574145    2.89439435461274    6.54446170249481
C        18.61810074493416    3.51359749182892    7.04573397971353
C        18.50075037308976    4.43334084939878    8.07680858136892
C        17.25144887556306    4.74061336373429    8.58658303449761
C        16.11744063161222    4.12275555114528    8.08516722821396
H        15.14811689201921    4.38819496161480    8.48130478931220
H        17.15505435962083    5.47117682782470    9.37597307529336
H        19.38035592439832    4.91847842812253    8.47186988752041
H        19.58923946823500    3.28756280597339    6.63001041599316
H        17.56706816135838    2.18181098233518    5.73234618996150
C        14.83935984839890    3.10437979922396    4.67947931678342
C        14.72526439908324    2.38572629046972    3.49729981088425
C        14.72197753724664    3.04673468654105    2.28067960850316
C        14.83341662086325    4.42600911288963    2.23953649662223
C        14.94706905951649    5.14817317416187    3.41815052601048
C        14.95106955914690    4.49336731105083    4.63446959606198
H        15.03815715015696    5.05590491800001    5.55441399656324
H        15.03356343738385    6.22388154873726    3.38725204409464
H        14.83247065007231    4.94076916084772    1.29085975208282
H        14.63282150696786    2.48391963130794    1.36363515637849
H        14.63936187264374    1.30913901246933    3.53986846075514
N        13.43809945253964   -0.18138636395739    7.88212135057400
C        12.17268887453881    0.07036272280301    7.62882218340752
N        11.39514844069515   -0.29025339532574    8.66313753759847
C        12.20648897594057   -0.80433067434845    9.62760854773734
C        13.47185634384933   -0.73164048077138    9.12848572341855
H        14.38590291670761   -1.04066484286594    9.59460819462429
H        11.83734570987573   -1.17356821682821   10.56099104569472
H        10.39309840575119   -0.20272385148601    8.71503705257456
H        11.79367608881121    0.51424306879366    6.72893291055432
H        13.96930340234630   -0.08884402865153    5.34777825738428

