39
CSD_code = MOVDUY | q = 0 | S = 0 | Stoichiometry = C14H12HgN10S2 | MND = 2
Hg        3.37489943394007    3.65447838670219   18.00242693706870
S         0.98934659299519    3.68775278102229   18.69999001210024
N         2.05466496367284    4.70963941327685   15.81575909544875
H         2.00880780213818    3.98995671903100   15.08922883294740
H         2.51475698299253    5.53786934650941   15.43319685996298
N         0.78095336316896    5.03225941138830   16.27907256022900
N        -0.92232850256397    5.23569207063993   17.65070092187233
N        -1.19297980954127    5.93168573112135   16.55023764574582
N        -0.22846854742402    7.85522145426584   11.99138316701172
C         0.26054937866395    4.69954805975547   17.51491636957830
C        -0.19757308211674    5.83132697205504   15.71142709394995
C        -0.16203842025869    6.48859489386315   14.42060668492325
C         0.66073475609905    6.11154055218092   13.35850832589144
H         1.32879270266876    5.26539455878676   13.41020164895617
C         0.58362638889225    6.83202123680442   12.17620239157962
H         1.20855505019963    6.57035103484059   11.33232441773723
C        -1.02436208200253    8.20278510297532   12.99055052741977
H        -1.68265392989093    9.03798016106588   12.79353641397091
C        -1.03359576991258    7.56319496206194   14.21621184528269
H        -1.69226981707498    7.86402630966020   15.01366620155521
S         5.75353685581919    3.62768797899798   17.28219047407027
N         4.71899744580594    2.58812988557339   20.17190765296772
H         4.77303273303139    3.30481184665390   20.90077754148898
H         4.26434017003940    1.75794621663171   20.55655923642130
N         5.98736574434124    2.26819644216163   19.69216140747200
N         7.67579028246279    2.07285677785057   18.30105980277937
N         7.95791403184634    1.36966365725187   19.39411091178434
N         7.04191979943365   -0.58072764139312   23.95126390415488
C         6.49470533511827    2.60854977374011   18.45292028379969
C         6.97166728242354    1.46527401775385   20.24407996786936
C         6.94968548327536    0.79995435979162   21.53112516830300
C         6.14581653199498    1.17741103995759   22.60740782260094
H         5.48386609268508    2.02914909391892   22.56995287081056
C         6.23529620966492    0.44989100721131   23.78453178783678
H         5.62563965209989    0.71178239426451   24.63943652728451
C         7.81977956810314   -0.92903401456426   22.93826281874232
H         8.47423454561383   -1.77054511687463   23.12060118779881
C         7.81575967271764   -0.28247276892205   21.71622405760437
H         8.46023510859103   -0.58364410788814   20.90737862272852

