89
CSD_code = MOVDEG | q = 1 | S = 0 | Stoichiometry = C42H39ClN4P2Rh(1+) | MND = 6
Rh        3.42810032254144    2.68718848478688    6.75166096623729
Cl        2.37200621383228    0.65162099633188    7.46788908834743
P         1.36442176014332    3.50058307591201    6.08668780621972
P         5.41940986880678    1.77422225732829    7.48718990016764
N         3.15732870123041    3.52607941123635    8.57620301789520
N         2.51854338007003    3.80275065899831   10.64567302338410
N         3.72179284920171    1.85811581788935    4.92612725252531
N         3.67672303909148    0.43481014234514    3.27011713689730
C         2.46493384680927    3.00628445214720    9.56927542632172
C         3.28553665415080    4.88182352144352   10.32937174345307
C         3.67952223147388    4.69990403989838    9.03926735752277
C         3.30014514389254    0.67278846556077    4.53382331643747
C         4.37213885483227    1.51903146702141    2.82982314977758
C         4.39554505486765    2.40000419653975    3.86765447712180
C         0.54222487869801    2.44154281389202    4.84748609569215
C        -0.48256160934284    1.54442117128147    5.11678453643844
C        -0.99229886905926    0.75085989839369    4.10200381692366
C        -0.48726611750048    0.84295054883127    2.81691055774959
C         0.52735507843144    1.74632852760412    2.53900030799220
C         1.03959258923274    2.53917326961786    3.54682565019899
C         0.17808486056317    3.72112561180553    7.45446848777892
C        -0.23352944250723    4.99701354200549    7.83314484124498
C        -1.10057768594253    5.16218877735260    8.89851267144101
C        -1.56135951301383    4.06182339875825    9.60222782692190
C        -1.13113165164605    2.79271223745071    9.25118532048038
C        -0.25712295767540    2.62079695275171    8.19261505653293
C         1.22851015887674    5.10504731859670    5.22874799320408
C         0.03104231451432    5.41534286877670    4.58513557052623
C        -0.11618198305759    6.62851687853954    3.94147201058528
C         0.92484047048068    7.54519830019841    3.93611769530606
C         2.11169275935538    7.24652198284314    4.58268683683134
C         2.26246586004831    6.03062086859779    5.22802733232137
C         5.69988249016108    0.07056217406587    6.89615007874230
C         6.13066387239211   -0.05229672002537    5.57452992344929
C         6.31995597566065   -1.29977164237311    5.01307166765690
C         6.08064779865334   -2.44060781569602    5.76346251522246
C         5.66721668419876   -2.32363223554637    7.07892271067816
C         5.47544518244804   -1.07531249793562    7.64731828610004
C         5.53722268475105    1.72345160971215    9.30529058384537
C         4.60623561760018    0.98822896855571   10.03850262334118
C         4.65426661311478    0.98408744084297   11.42079144458517
C         5.61164254124810    1.73103665884159   12.08761307485888
C         6.51450380919648    2.49331316683070   11.36526717200893
C         6.47751768578247    2.49578407567018    9.98221471597756
C         7.02336655391683    2.50536634312791    7.02000550725583
C         8.18369907341700    1.78187129222024    7.29303035788146
C         9.41953634973710    2.30468776986184    6.96623295573673
C         9.51133688411680    3.55158076060065    6.36540411459396
C         8.36282779180172    4.27546734352748    6.09609998976309
C         7.12242324874660    3.75398383077112    6.42347314883871
H         4.10569474752277    3.93609960266750    6.28995568039220
H         4.29872568608631    5.33037181066460    8.43340195597623
H         3.48882591990356    5.67260453886995   11.02032816397245
H         2.07048968100408    3.62844077231809   11.53097264165027
H         1.93237882401143    2.07622777166879    9.53307367501259
H         4.84714103498325    3.37101445164619    3.91555232885377
H         4.78644891252637    1.58326025807965    1.84547461011315
H         3.47820280489973   -0.39993135740763    2.74218050764107
H         2.73578436436601   -0.01887061228490    5.13037616274661
H        -0.90030576360268    1.46859877110031    6.10756274242066
H        -1.79208472255445    0.05928895707318    4.31967147059224
H        -0.88939467211388    0.22189974555845    2.03102057577275
H         0.91361614147478    1.83756195667460    1.53422448365222
H         1.82075354333322    3.25734772933248    3.32906713154910
H         0.11870005113330    5.86418516643602    7.29367307559336
H        -1.42024464499337    6.15532715877092    9.17652583795970
H        -2.24743630665493    4.19374646191511   10.42509237271108
H        -1.47558569704014    1.93153807995172    9.80464999648264
H         0.11025904174268    1.63263603942373    7.95532374310571
H        -0.78279848917326    4.70309402789137    4.59474356795572
H        -1.04484100160042    6.86154807056033    3.44298428382504
H         0.80773838312731    8.49125156864158    3.43019798065287
H         2.92141592794529    7.96093587054172    4.58507712016475
H         3.18762471526157    5.79486768735286    5.73543125957218
H         6.33825727356608    0.84015785095201    4.99642788943711
H         6.66180598578220   -1.38340974393363    3.99151444626711
H         6.22613414627674   -3.41644166980205    5.32582440011402
H         5.49263860871400   -3.20921800322916    7.67098981340150
H         5.16442317317561   -1.00479108992874    8.67715692826407
H         3.83554315685945    0.43137571691436    9.52532031834565
H         3.94067554213519    0.39560638167880   11.97876153701800
H         5.65084681080985    1.72351867146645   13.16633076041382
H         7.25387161034594    3.08823853518932   11.87987215952620
H         7.18530143819081    3.09698551953508    9.43046861708061
H         8.11034248000065    0.81149515492491    7.76528909814208
H        10.31438294572922    1.74037676878978    7.18062797751676
H        10.47829150132824    3.95694746368895    6.10986737072327
H         8.43235924422486    5.24764023912847    5.63133712031205
H         6.22279968293565    4.31728119935705    6.21665305411794

