40
CSD_code = MOWDOS | q = 0 | S = 0 | Stoichiometry = C11H22Br2N2OPtS | MND = 4
Pt       10.38451053994219    3.79046227152768    3.29468661170241
Br       12.79774790829555    3.73066345769644    3.44813417039510
Br       10.21755797352339    6.19401617922060    3.34981082467990
S        10.56380309948298    1.52525136056831    3.08891212161379
O         9.27381291231648    0.86126033468373    2.91984801768897
N         7.68270890855357    3.35484809386598    2.04339668883561
N         7.47773964043547    3.78494398353316    4.13833899833376
C         8.37248758436009    3.67188613804372    3.14625087045312
C         6.35331255391447    3.24644267833257    2.34291543714065
H         5.61768547765541    2.99551718960606    1.60732120747684
C         6.22530940884433    3.51740285818360    3.66411728949169
H         5.35602485647169    3.54853823480143    4.28752155622382
C         8.25857456582916    3.13509419216705    0.74597822386845
H         9.20086225752284    3.68408054248399    0.67760475211977
H         7.58054723186205    3.49521500214764   -0.02657169840223
H         8.44610071422654    2.06935317200115    0.59615864714294
C         7.82030255435192    4.11538614768878    5.49941930661808
H         6.92623326511342    4.48911865020778    6.00142589019440
H         8.56017106181400    4.92070493655433    5.46794798077491
C         8.39711484657371    2.90428674900146    6.24519932066104
H         8.93447514668127    2.27537618372306    5.52834314004345
H         7.58121909847444    2.30665268578279    6.65616778259697
C         9.35889466950306    3.32688649576435    7.36409589010856
H         8.94058722039258    4.20995160506547    7.85880296860246
C        10.73229356973949    3.67947790299602    6.79757044442864
H        11.33067400011442    4.20919390939244    7.53373886104334
H        10.65068991924481    4.32204986208358    5.91726406224226
H        11.27023888277454    2.77581444295894    6.51844299318250
C         9.49180669830795    2.21291239227898    8.40077249809836
H         9.83778338065935    1.29363187974734    7.93183041463499
H         8.53690826413321    2.01324599992333    8.88188832978983
H        10.20873553828645    2.49478563439088    9.16756745797710
C        11.46599858454032    0.58710211109284    4.36550596063374
H        10.88916167685394    0.62995043193480    5.28319022168520
H        12.44258106292156    1.03652160715561    4.50397348236568
H        11.54482901044094   -0.43882142852895    4.02684429870273
C        11.58463241075934    1.02735183881418    1.66382825838018
H        11.46486814318903   -0.04211761650553    1.53585763341331
H        12.61645554966557    1.29332939397495    1.86052242195743
H        11.22605981223018    1.55003249564175    0.78257666310144

