54
CSD_code = MOWDEI | q = 0 | S = 0 | Stoichiometry = C23H24Br2N2OPtS | MND = 4
Pt        4.79194957334607    4.71298428109905   20.25887073843180
Br        4.78914812609593    4.01977959595825   17.94591099037477
Br        6.66118671867877    3.31500029300519   20.89438241242010
O         3.92060071884872    6.50822829329951   22.70618069796218
S         4.99065339813786    5.57089775658092   22.36921024980435
N         2.01814141787922    5.90570906616477   20.27486679938092
N         3.44524420649020    7.16043082556129   19.22013602905849
C         3.29611526834578    5.99705447829357   19.87096506500978
C         1.33075673460194    7.03813060819471   19.89846920493020
C         0.01743637938512    7.44702651274163   20.07623353955315
H        -0.70145963254380    6.84119058093676   20.60490797455761
C        -0.33689403307195    8.67510689229817   19.55190342167646
H        -1.35026127465846    9.02599923827921   19.67191430110804
C         0.58139357300828    9.47691603037489   18.87492607637736
H         0.25888714034795   10.43023754447095   18.48605060678457
C         1.89219337176014    9.08086387161339   18.69472400553641
H         2.60527912840428    9.70443951337607   18.18002210549099
C         2.25326446679651    7.84784668404934   19.21486271097542
C         1.46492646658091    4.79811001343312   21.02826790496475
H         0.37810543279021    4.83371410027381   20.92012861402932
H         1.72079777207755    4.93033589094570   22.08614351812235
C         1.99952535976281    3.48780887506275   20.50635063982069
C         1.61099786458045    3.03158643118986   19.25211095053537
H         0.91049915906660    3.60973570948058   18.66637791825085
C         2.13606201001932    1.85753116840906   18.74197054562752
H         1.84348143830926    1.52394054359059   17.75868719225528
C         3.05023768292414    1.12489880946064   19.48021629662355
H         3.47348785866032    0.22037169015700   19.07231069368799
C         3.43267677154746    1.56038930208337   20.73745516463787
H         4.14398941962645    0.99101267116934   21.31650517799430
C         2.91467029191439    2.74245876056335   21.24915237105605
H         3.16401319359625    3.05151891970398   22.25667435874181
C         4.67174495868775    7.65576350232480   18.64931744858133
H         4.52295391096324    7.83028719524585   17.57879248282886
H         5.43101340376248    6.86568344852979   18.75311490897210
C         5.14593215977409    8.91726470859357   19.32644367537770
C         5.86815135928665    9.85757866952354   18.60270224392902
H         6.07201133225480    9.68249576924128   17.55618589206062
C         6.32887379083182   11.00950813775408   19.21445891778305
H         6.88956644979999   11.73322328997654   18.64209819103699
C         6.06768821789562   11.23582448585564   20.55546303112619
H         6.42360985795842   12.13658716635070   21.03247106949546
C         5.34805756884723   10.30270910395318   21.28138914002188
H         5.14011914081197   10.47096774495399   22.32758472496236
C         4.88960369782306    9.14707471409425   20.67267503889456
H         4.32989615682849    8.42855900438307   21.25481167933465
C         5.23359205541423    4.52184853269805   23.84300249810201
H         5.50690724253559    5.17281030543439   24.66433883072429
H         6.01128943553683    3.79722456402977   23.63185742955175
H         4.29590658389355    4.02407865435692   24.06470228107914
C         6.55439024545251    6.49572883086951   22.48457897960408
H         6.60258189509230    7.19558759649917   21.65495082304085
H         7.37471375378050    5.78865408393513   22.43165241165690
H         6.55689077893832    7.03768553926588   23.42322002609055

