61
CSD_code = MOWGOU | q = 0 | S = 0 | Stoichiometry = C32H24Cl2N2Zr | MND = 12
Zr       12.32194168398638    4.65289839504772    5.69609415899943
Cl       12.50484832263797    6.10075239618932    7.50050904606726
Cl       13.67837057451162    6.06779159178196    4.45212177494760
N        10.41824875423738    4.07485566629998    4.96406531020680
N        13.41254510348095    3.00230291918516    6.14411178206341
C        10.74723380270023    4.88633330311436    3.89304760399825
C        10.50175741091174    6.23114033832174    4.21555146223736
C         9.99455688662568    6.24805058812903    5.52460954751862
C         9.94606907141293    4.91282715970646    5.95818003407492
C        13.31447925175932    2.43244038504655    4.88543156099051
C        12.32018189017278    1.45540398052354    4.89215056306502
C        11.77348152361196    1.43250551572855    6.18242167042278
C        12.44730881417776    2.39624258410214    6.93098576789721
C        11.35054018017002    2.22156209007143    9.16626321010608
C        11.29577673771893    2.55638091163313   10.50549768072143
C        12.24308025177052    3.40372654554505   11.05458931358497
C        13.26979740494605    3.89254467632030   10.26146559750032
C        13.33580803514021    3.55942990477630    8.92310207770001
C        12.35512195229017    2.73948067833169    8.34687721496264
C        14.26824459801708    2.81471118871677    3.84791580023139
C        14.13759003192329    2.37521417825892    2.52965757036638
C        15.06435589054571    2.74313615922184    1.57312339839069
C        16.14127540035712    3.54381765392290    1.91347483182800
C        16.30154201054485    3.95923895046577    3.22659021782096
C        15.38097577739205    3.59654015413020    4.18950735550532
C         9.40065633201114    4.36449567730863    7.19993031297849
C         9.40149049809113    5.10252427842096    8.38592948916319
C         8.17200498973078    2.61548339433916    8.31516136836139
C         8.16981480804076    3.35775206444508    9.48523785489121
C         8.79421412172494    4.59419356612119    9.51842998479318
C         8.78703658428789    3.10927789593227    7.18075802709962
C        11.18953788370063    4.30407192398782    2.62625774176082
C        11.98649208216056    5.02236687184672    1.73166277182921
C        12.31661205007009    4.47682278527955    0.50549944413192
C        11.85304618060125    3.22104736808746    0.14800478839029
C        11.06775137197561    2.49862495942524    1.03261253361832
C        10.74001711900259    3.03105235550032    2.26479065425068
H        10.60382300641053    7.07964152608799    3.55786558837649
H         9.63324989174296    7.11151968214716    6.06025053996442
H        12.05583737878218    0.80137259886310    4.08196604144552
H        11.01326422137899    0.75973036377826    6.53375364246533
H        10.61144235882541    1.55604693786220    8.74902647763186
H        10.50894685237326    2.15148250771174   11.12435305718732
H        12.19262744888322    3.66964583715075   12.09965570792843
H        14.02493317537853    4.53378737917002   10.69071471386954
H        14.16314166971417    3.91061842978050    8.31195803008287
H        13.30415135889094    1.74733619620029    2.25648122466048
H        14.94396958763416    2.40158057924417    0.55576878057056
H        16.86052131285034    3.83401308027219    1.16252435010172
H        17.15005953685731    4.56846743199177    3.49978764770852
H        15.52139210149162    3.89875852037604    5.22415911390089
H         9.88528108241158    6.06818832099907    8.41742236673293
H         7.68424325104732    1.65167487936060    8.28634173067046
H         7.68123590993068    2.97383909732943   10.36829322787090
H         8.80237107464087    5.16923329444589   10.43210945764809
H         8.78211032989039    2.54865223234958    6.25659918692595
H        12.35158320742470    6.00195959507596    2.00449956451591
H        12.93598847580772    5.03744495725239   -0.17833571867742
H        12.10211663481964    2.80575946006161   -0.81710195706597
H        10.70323988023691    1.51978871286633    0.75547609779920
H        10.11326487005553    2.48641732433962    2.95681160526654

