57
CSD_code = MOWGAG | q = 0 | S = 0 | Stoichiometry = C22H30N4Ti | MND = 4
Ti       17.21409768716278   10.09525843605221   20.57766654267379
N        17.21409138719313   11.63655830953242   19.37998235687636
N        18.68543068623318   10.24649365205814   21.69291783390946
N        17.21415610089572    8.42334699913919   19.76648082532693
C        16.11150305184622   12.44156619919090   19.25002797533425
C        16.51622177319117   13.75275175424245   19.01454819650631
C        14.75797729658349   11.91814842122501   19.32277516762391
C        13.68140835924609   12.74975425510076   19.64415203773850
C        12.39532232579189   12.24889885261239   19.70770763372338
C        12.15251733135484   10.90870671204081   19.45443799015536
C        13.20961921973176   10.07329190373559   19.12705710739811
C        14.49894036845632   10.56754554423508   19.05938762774140
C        18.92044245660188   11.43049718430106   22.47978428759056
C        19.60003097651898    9.19759618174725   22.06332782266741
C        17.21407795685063    8.10281319150625   18.35800508204293
C        17.21433920352013    7.21721920014435   20.55818811179352
H        15.87938977490859   14.59802465264173   18.83249195358331
H        13.86138418286058   13.79321958135900   19.85688014170444
H        11.57549947458708   12.90617551611281   19.96122355879852
H        11.14634913728608   10.51906210033096   19.50702736261611
H        13.02227005472570    9.02946711875473   18.91516840293563
H        15.31899370812496    9.91657003347559   18.76732312319954
H        19.98278351518811   11.72553833133206   22.42854552054004
H        18.67723278196664   11.27187597707671   23.54773313334505
H        18.32546550970500   12.26849258470401   22.10276258531813
H        20.64153447955628    9.56021845013407   22.03407975632599
H        19.51725738392692    8.35927662001806   21.36920298837667
H        19.41069898218468    8.83260763067066   23.09150923411551
H        16.32797143313169    6.59116766682959   20.34145758701102
H        16.32669441208380    7.50259092032195   18.08282649216903
H        17.21433724433414    7.46906755201118   21.62499299381714
H        17.21395836208718    9.01426334114709   17.74755044506621
C        17.91210025809983   13.75269981710643   19.01452802294687
C        18.31673278923249   12.44148531011759   19.24998444364532
C        19.67022713144514   11.91798143239399   19.32271839004423
C        20.74684101932920   12.74950919163447   19.64414751838151
C        22.03289861053314   12.24857761979290   19.70768091706717
C        22.27563017866577   10.90838579912849   19.45434020097662
C        21.21848129858370   10.07304633851576   19.12691945813957
C        19.92918929292211   10.56737762367628   19.05926921554250
H        19.10910193083672    9.91647036988494   18.76715698603983
H        21.40576969090493    9.02921728407297   18.91499688497794
H        23.28177074587574   10.51867294241807   19.50695503536115
H        22.85275435830890   12.90578949774449   19.96125860094873
H        20.56692445906648   13.79297725045949   19.85691397972056
H        18.54898896437471   14.59792541156231   18.83245237265650
N        15.74267482987058   10.24624128373167   21.69283844037690
C        15.50746557245432   11.43013182702138   22.47981415372935
H        14.44507098766426   11.72498637300036   22.42862221893845
H        15.75072579289142   11.27146081263268   23.54774460094978
H        16.10228280166946   12.26826712956005   22.10285244477751
C        14.82824093121477    9.19715997540044   22.06314240429508
H        13.78667913772378    9.55961615085119   22.03391386651489
H        14.91116266123814    8.35891719686138   21.36894288928967
H        15.01761891357676    8.83211025329372   23.09129341651688
H        18.10151614103950    7.50273297185535   18.08269134234625
H        18.10085488463885    6.59139526349765   20.34140031779124

