69
CSD_code = MOWHAH | q = 0 | S = 0 | Stoichiometry = C26H38N4Zr | MND = 4
Zr       -1.33200286647494    2.77868538537625   -1.59440238747379
N        -2.23136537683965    4.49142935988674   -2.40698085887798
N        -0.45211928694671    1.67223027856473   -3.04430226258313
N         0.10246606098443    3.03723695144398   -0.14419622731105
N        -2.86707509182947    1.51988265532318   -1.11105061254037
C        -3.50684863796132    4.83412684829277   -2.04295917251147
C        -4.04418103648162    5.68493258586743   -3.00260743238834
C        -3.06846375596712    5.84850661359227   -3.99367534040453
C        -1.96627571953019    5.08544152692408   -3.61257950774382
C        -0.65834138085878    4.85264456879765   -4.21670324887329
C         0.41653967941294    4.57276773674486   -3.35704456673819
C         1.68502471613008    4.32311638098578   -3.85031074321015
C         1.92605742851363    4.33549898221637   -5.21803978286960
C         3.29056866854167    4.06324657883522   -5.77725237718251
C        -0.96405810373459    1.58574207605483   -4.39475971397854
C         0.88953803480002    1.13743902374331   -2.97786221336281
C         0.46746752839397    4.25309843041165    0.55047555247715
C         0.44763032959962    1.89965261352419    0.67960146914137
C        -3.65412899313688    1.10761119101964   -2.25315841853646
C        -2.62187353276461    0.39045566609330   -0.24631598729102
C         0.86163653806169    4.60658552615906   -6.06809087584722
C        -0.41997406531809    4.85830265501240   -5.60172841379042
C        -1.51749375820584    5.10439711373298   -6.59258515981166
C        -4.00401909035073    4.26226688144588   -0.79309098135511
C        -5.29790011309310    3.74990652035558   -0.62266177870628
C        -6.33286954307456    3.87342226057772   -1.69963160670753
C        -5.61162067446988    3.10376023301559    0.56347393995017
C        -4.69260820992685    2.94395308525228    1.59205866576150
C        -5.06677548286999    2.19235158070348    2.83418356506164
C        -3.42410515469680    3.48864041980031    1.43444202003513
C        -3.08361466964166    4.13945718270162    0.26164728897721
H        -5.00419921013634    6.16451542585148   -2.97701551875615
H        -3.15555168206905    6.48540576810440   -4.85208685849830
H         0.26855430658627    4.62472095747716   -2.27609780151876
H         2.49651529374000    4.13072805474688   -3.16151226206251
H         4.00570966767656    3.87273200677344   -4.98096891564928
H         3.63975183043203    4.91368085267237   -6.36194022836056
H         3.26615892469229    3.19597424606244   -6.43673391024572
H        -0.26847567171797    2.04146147607332   -5.12471574331277
H        -1.92858060288621    2.10346328825833   -4.47294559668345
H        -1.10790788068779    0.53313659387722   -4.70816568650910
H         0.90050402702296    0.04592032133449   -3.16592957955777
H         1.32073859865447    1.32643862657222   -1.98947651561523
H         1.54791201018582    1.59856704013374   -3.73928221854722
H         1.55755984704872    4.28812239414212    0.73955417189633
H        -0.02320667959848    4.33621228741101    1.54325239196839
H         0.20630298561666    5.14208406922305   -0.03728862774197
H         1.52653713992229    1.90255781677578    0.93118277907171
H         0.22502072597249    0.96497940592324    0.15117516561913
H        -0.09764398876205    1.90037615701473    1.64857312981743
H        -4.62965014608770    0.70338605920189   -1.92474347090055
H        -3.15811508808089    0.31241582281781   -2.84967009387986
H        -3.85234586053515    1.96949660089571   -2.90326131913989
H        -3.57178610301664   -0.10895304608796    0.01820822183588
H        -2.15850840087783    0.73048549361945    0.68532988381855
H        -1.97214341055477   -0.38214278538313   -0.71854813639452
H         1.03756857076645    4.61157892047599   -7.13571983014351
H        -2.44424105946814    4.64061980214067   -6.26163061494459
H        -1.24674591045478    4.70434543574329   -7.56746634213058
H        -1.69566967256341    6.17356879527782   -6.70576122492149
H        -7.11118532781584    3.12438490122310   -1.57335093700413
H        -5.87933135016930    3.75760329767589   -2.68175106320693
H        -6.80049283901405    4.85748507642848   -1.66169667069153
H        -6.60607094968419    2.69530714195263    0.68647056071935
H        -4.37226013532240    2.40570665828878    3.64328408754211
H        -5.04394654682313    1.11947680005669    2.64014393098363
H        -6.07334283738239    2.45168248735832    3.15736003055684
H        -2.70560840678044    3.41878868873380    2.24176427661947
H        -2.12633860805854    4.65539814869955    0.18246770465204

