64
CSD_code = MOWLIU | q = 1 | S = 0 | Stoichiometry = C26H32IrN2O3(1+) | MND = 8
Ir        0.57967714827798    3.69829939210924    2.25161390716616
O         2.74755871332230    1.13434501804083    1.93372391370743
O        -0.56642540233795    2.56796373399083    4.89057967067337
O        -0.38643439676371    0.35543500208260    4.56704259321752
N         0.34279619715278    2.66931144160829    0.48748541107393
N        -1.42246252166716    3.23423245366855    2.26016222286408
C         2.07771766480745   -0.37214534970869    3.60500153543646
C         1.82116651320903    0.92584414190954    2.89952136297516
C         0.84514946860339    1.81132744028952    3.17050996199680
C        -0.07796176344842    1.62414587776348    4.28917031842555
C        -1.27751908987882    0.12259478601951    5.66173061675995
C        -0.53917690122303    0.11083978276452    6.99188341873862
C         1.26365732859619    2.54962930391953   -0.47478999743039
C         1.09529011776535    1.75694059075552   -1.59017925777370
C        -0.08331522991731    1.03193511840192   -1.72511984078830
C        -1.05595253543806    1.17047956220773   -0.75530870595601
C        -0.83137233271516    2.00683302323928    0.33728301852298
C        -1.82193445850795    2.30292998016693    1.36393869951736
C        -3.09494353858012    1.73944774347071    1.42473182686878
C        -3.97676733961092    2.16007453441129    2.40227862133705
C        -3.57176129132717    3.15561647277118    3.28138234366859
C        -2.28759240991840    3.65691259429152    3.17853466852449
C         2.03023914265608    4.61510045327575    3.68818472079947
C         2.54514556571150    4.68795139426476    2.34517449671853
C         1.70842078571390    5.61426469971752    1.61051956663928
C         0.64485996525231    6.00666147256020    2.44607972253408
C         0.82718047941089    5.37504039741873    3.73296418028871
C         2.70623814564830    4.01414657715663    4.87460260125631
C         3.93128733631133    4.28345640848178    1.94135744027666
C         1.99627491867084    6.16073081631538    0.25179351696352
C        -0.38985389973815    7.03305263511961    2.12641846494711
C         0.08169705328173    5.69469450211126    4.98537559295889
H         2.63571146355643    2.01099930410626    1.54394429345053
H         3.06282930018247   -0.72686543612900    3.31367665107342
H         1.33342242828562   -1.11025174577367    3.31759841923563
H         2.03201684820683   -0.25012899943320    4.68238522971477
H        -2.04831918779621    0.90067738175791    5.66252703080039
H        -1.72806925894174   -0.84963244854529    5.45392350438073
H        -0.09578976811267    1.08527379808944    7.18100375491702
H         0.24535166452193   -0.64147421399140    6.98206604187752
H        -1.23672674282935   -0.11795068414459    7.79183808697670
H         2.17326056450725    3.11979952340441   -0.35350110207198
H         1.87266341870594    1.70168812243952   -2.33392616021345
H        -0.23967352070995    0.38541892103615   -2.57340124655741
H        -1.98818044707909    0.63876031539397   -0.84399196290345
H        -3.38715296647913    0.97693853735611    0.72261035952627
H        -4.96186564460045    1.72708157929870    2.47394414233032
H        -4.23436054543097    3.52923656425791    4.04452294014582
H        -1.93681922365620    4.40562888629928    3.86968451012573
H         3.28317873642222    4.78638969299486    5.38545414985404
H         3.38343239286878    3.21388326581752    4.58973954661286
H         1.97215846502634    3.62030053051565    5.57219484461975
H         4.01049627557184    4.08831150566508    0.87330671322554
H         4.26314361699686    3.40058767714878    2.48191450633836
H         4.62181236190460    5.09489603582562    2.17632160871249
H         2.42903392923736    7.15718736519924    0.35086729740725
H         1.09083056474520    6.25176288675144   -0.34594600082792
H         2.70897598850154    5.54372851372323   -0.28929336570288
H        -0.07022474416379    8.00461533387546    2.50642903411991
H        -1.34697609758422    6.79306495623197    2.58583363728770
H        -0.53547208967595    7.12465261331252    1.05268582926578
H         0.74053955460187    6.22834563344923    5.67078436021779
H        -0.24110496100957    4.78010589334272    5.48056305195097
H        -0.78210580910162    6.32387669013151    4.78709368119956

