78
CSD_code = MOWSOG | q = 0 | S = 0 | Stoichiometry = C25H46Cl2Si4Zr | MND = 12
Zr        3.76355546374002    4.76723248118539   11.39595196380431
Cl        1.78434252250509    4.64443129004642   12.62245200423881
Cl        5.10183967201826    5.33738389833631   13.24587441795571
Si        5.86536507111265    4.82062784931750    8.75508793066218
Si        3.23029857786310    8.32578343496617   12.60079539277712
Si        1.62166075761041    1.71311670416824   10.91781661209818
Si        4.54881982606511    1.83136629215349   13.58644651037234
C         4.58832225509121    6.05558443969523    9.41201119613540
C         4.77018258511242    6.82788045835937   10.58452183953362
C         3.50806889203401    7.19207877808395   11.12048107193396
C         2.52551152412437    6.61917280345681   10.26395887149122
C         3.18062536505750    5.91625263641765    9.23768494889187
C         5.18587958182636    3.41440787513147    9.82328549105119
C         5.54465341621448    3.10942037096499   11.15834385376809
C         4.45184112065809    2.49289240772539   11.82345264896284
C         3.36919833180511    2.42571843519119   10.88123711902375
C         3.83931053931346    2.99658671868200    9.67439803057225
C         7.61629744505474    5.31739097574764    9.37561518747279
C         8.66489711912682    4.26601535082254    9.02269219719839
C         8.05621617084744    6.68930700374315    8.86991856058490
C         5.60519853960501    4.42357899777396    6.89093966400478
C         6.22329645083208    5.47561460334546    5.97590086278146
C         6.12508422689121    3.03377183245326    6.53033062780670
C         2.09278785524554    9.74980864654690   12.01801019898382
C         4.92870137695922    9.03468953959754   13.11572351565979
C         2.41187835385130    7.48005681572279   14.10435926047749
C         0.60025011766820    2.97237420380735    9.88263653699251
C         1.68403775176307    0.05915030656594    9.95358728262428
C         0.72925055724750    1.38360764573444   12.56892412148187
C         4.18903253678872   -0.04865274804533   13.53488311035956
C         3.37750236703756    2.71297484405827   14.81029672512782
C         6.34485141707957    2.05457148015554   14.20884389596534
H         5.72352007003925    7.16619123482789   10.97303500046540
H         1.45772509276824    6.79853302902801   10.33461023092537
H         2.69762817472583    5.46868687729823    8.37654682230945
H         6.52999096592367    3.24825899673796   11.58794048568674
H         3.29294840758260    3.00532168826057    8.73919480316433
H         7.56147098272742    5.37380266361668   10.47074957191019
H         9.62328833805384    4.51259097040845    9.47770844599050
H         8.36302488876443    3.28131226596064    9.37089633682896
H         8.80945738431284    4.21938045555694    7.94587745896968
H         8.99452071046090    6.98358758322553    9.33844956493583
H         8.21051629172644    6.67157849088832    7.79462598574037
H         7.31044671324238    7.44803188164696    9.09172279246123
H         4.52582995676444    4.42727669450665    6.70388133539682
H         7.30737475543062    5.45827393394983    6.05384090895586
H         5.96084932431690    5.28054661990695    4.93689779009499
H         5.87339216830094    6.47128328096085    6.23655872247434
H         5.89419523137768    2.79846726529379    5.49225219481737
H         5.67416121716633    2.27420446877589    7.16374957071869
H         7.20326887445280    2.98272860132232    6.65470542147894
H         1.10757858916665    9.38901541031930   11.74109910499174
H         2.50710231761719   10.26772314585474   11.15934008848394
H         1.96271001585146   10.47837098640595   12.81053369009436
H         4.81334910577919    9.74158790414305   13.93062478657686
H         5.41377491777963    9.55742997555626   12.29706344373533
H         5.59408058947472    8.24730539514728   13.45652131205092
H         1.41389364287201    7.11919697877867   13.87156196821875
H         2.32311801727626    8.18027758761333   14.93001444158307
H         2.99713484119120    6.63208686718220   14.45271514209867
H        -0.45930759900717    2.88779870702331   10.10120152748154
H         0.71916287397468    2.80781049088218    8.81516401300621
H         0.89906066651620    3.99868697706015   10.10563589443892
H         0.68311745890775   -0.31565085311752    9.76890626260382
H         2.22157507195578   -0.70294530512233   10.50773193754167
H         2.17723404815993    0.16957525087359    8.99342830032930
H        -0.19127596614752    0.84106282052482   12.37444787905379
H         1.32203769672357    0.78584986740828   13.25146433413740
H         0.46683349093643    2.30950593049569   13.06757406119623
H         3.31419374928678   -0.28725317794210   12.94082503086381
H         4.02798166368300   -0.43334778126167   14.53588531941962
H         5.02787909989414   -0.58918948608561   13.10924200940494
H         2.33514126647217    2.62948129885019   14.52302703421574
H         3.48021521581129    2.28955751698281   15.80535869110020
H         3.61512488233256    3.77219470181702   14.87910851711807
H         6.61385533919333    3.10474580435813   14.26684216474358
H         6.45480122060107    1.63357620595113   15.20308819988949
H         7.06276044701474    1.55579340705437   13.56468975111066

