62
CSD_code = MOWSIA | q = 0 | S = 0 | Stoichiometry = C21H37ClSi2Zr | MND = 12
Zr        3.55390410454525    2.98333815731583   12.80774402117965
Cl        2.92972909941276    3.68673300656748   14.98963437631647
Si        1.80092745649901    6.43337755094625   13.21262508645587
Si        6.89431331396002    4.21927107742877   11.30077448360131
C         1.55256315477757    1.84092349756313   11.78368579797732
C         2.70407237750877    1.24397939346955   11.18517414338091
C         3.41376405637746    0.54611129975950   12.20001794002007
C         2.71715838745429    0.72604853290172   13.42599506876197
C         1.56237235221976    1.51238065321778   13.16942153359403
C         3.03502567678118    5.34391179302022   12.30227981478243
C         2.79779588570163    4.61628412792969   11.10104507313978
C         4.03011899549127    4.13140746447022   10.62181436514256
C         5.05791198263420    4.55557216072787   11.50537278793701
C         4.43051367530838    5.29405031448128   12.53668089969117
C         0.35307857783570    2.38747884486928   11.05194231809802
C         2.97748114707160    1.12234797147417    9.70898865680034
C         4.59841782610433   -0.36023368276725   12.00390830452928
C         3.08419311550620    0.14278479554973   14.76138184050988
C         0.43508533606930    1.70464848670627   14.14738338451796
C         0.21612694991741    5.44756933987344   13.63001344510182
C         2.58432541948602    7.19256352201672   14.77511410668525
C         1.31052986931453    7.84959210850470   12.01751553530163
C         7.64951139735921    5.40083352895229   10.00160583463092
C         7.06596521759696    2.41453259921730   10.67860289289174
C         7.77782946457933    4.44657392029535   12.97685880816223
H         1.86176624018232    4.61670700751580   10.55671676238424
H         4.20174081514812    3.66083410574527    9.66203129202888
H         4.94457186539542    5.79966631511839   13.34684160118272
H        -0.04942542969398    3.27680859970618   11.53758400784187
H        -0.43750351489898    1.63296238834233   11.03327899629426
H         0.59248288853154    2.63199377785786   10.01885172737417
H         2.49010801529811    1.91589405115527    9.14479129957312
H         2.59311236590988    0.16912915031335    9.33646134017426
H         4.04695352330633    1.15352556304077    9.49626012383737
H         5.38602248581876   -0.14774743749570   12.73035995923227
H         5.01158443781695   -0.25648591359727   11.00217850908595
H         4.29572406159876   -1.40168496317045   12.13537014089531
H         2.48027258701907   -0.74262137611515   14.97571467821873
H         4.13457520944673   -0.14726942094251   14.78209573443108
H         2.90922448944827    0.87166658472774   15.55631476542553
H        -0.36641830690708    2.29599401371093   13.71035288540850
H         0.77677019083430    2.19195822975927   15.06208080092716
H         0.02432678721645    0.73071080323205   14.42344575822776
H        -0.36959748792338    5.22983159418793   12.74055845205263
H         0.46801822467063    4.51360338387129   14.12375845027707
H        -0.42200046210268    6.01359045827009   14.30095827136877
H         3.45522109430865    7.79400290271701   14.53226914021129
H         1.87630502818195    7.83551579431363   15.28808393565131
H         2.89063297996356    6.41581741302981   15.46770740274499
H         0.58034745173598    8.50506088455938   12.47971423477192
H         2.16910571565838    8.45414124436455   11.74440237127631
H         0.87472809794434    7.46929612029809   11.09915776668409
H         7.15380884915939    5.30944936985358    9.04080319154195
H         7.56803173260355    6.43647183066215   10.31415819845846
H         8.70161201497339    5.18374934171966    9.85166573252144
H         6.70213646522129    2.30281577903089    9.66045877548443
H         8.09916971723679    2.08162881421878   10.68976981245229
H         6.49260663904544    1.74826497972217   11.32092227455416
H         7.26135110876886    3.88687900250686   13.75301068939022
H         7.80114381569374    5.48991767191761   13.27725520797129
H         8.80427711898258    4.09522800419412   12.93837497221746
H         5.09689834490597    2.43951346716574   13.43086021860824

