84
CSD_code = MOWTUO | q = 0 | S = 0 | Stoichiometry = C37H44FeN2 | MND = 7
Fe        0.95251678088695    2.36938609889685    8.10485273378037
N         1.86271776014626    5.02604161545470    8.03625611361052
N         0.00382416199786    5.13874792993756    9.09736103140535
C         0.11750377804617    2.09209940481469    9.81815015650904
C         0.88250245807937    1.59295561348989   10.87139350736012
C         0.30624792891525    1.09440708963229   12.02996364453426
C        -1.06896086154408    1.07945900168358   12.17255608232753
C        -1.85345814162147    1.55875622010125   11.13860722645557
C        -1.26170386823976    2.05176964277147    9.98986422181171
C         0.79321684555900    4.25976474283640    8.42767633442204
C         1.73303490505798    6.32420320752185    8.47312621892393
C         0.56562473073709    6.39304891629561    9.13875684835167
C         3.00566289208965    4.63373258970811    7.30856515523116
C         3.32500445236758    5.29251406233614    6.12040522809162
C         4.52737473804441    4.99207058506340    5.49252501583821
C         5.41330798785516    4.06653655245975    6.02057162271915
C         5.05873482555579    3.40233388427395    7.18755515309261
C         3.86085748871885    3.66081030035986    7.83367907579468
C         2.40404257878074    6.30545137414652    5.50525376688829
C         6.70501724040418    3.75309870802468    5.32993142335549
C         3.47370052629684    2.91270549346097    9.06582143828103
C        -1.28927399333514    4.95326027702264    9.64265102732784
C        -2.38477952661870    4.98807372752700    8.78352315740845
C        -3.65735635393254    4.87999856549109    9.32246457896137
C        -3.84911316439146    4.76375395727187   10.69106774781072
C        -2.73976426884968    4.76542604752237   11.52657704175887
C        -1.45290435351869    4.86065738782155   11.02384073835263
C        -2.15537748401464    5.14738517594477    7.31300926532047
C        -5.22460756632286    4.63466933873027   11.27249173565353
C        -0.25871936685471    4.83796121507579   11.92472504749395
C        -0.03646590640201    0.53721008345317    7.43419315954136
C         1.36035843550675    0.47227498338998    7.24060304697091
C         1.72411005419368    1.46401865278410    6.26571267006285
C         0.55971478735805    2.18126464275780    5.93153862993803
C        -0.53793431817218    1.62089157579253    6.66169907572683
C        -0.84663765615210   -0.45660489507492    8.20156189698403
C         2.25317038206581   -0.60084255598173    7.78201280883006
C         3.02763876900261    1.50653788172657    5.53493361304988
C         0.46016321459846    3.21259400391508    4.85102196604214
C        -1.98947091527299    1.86198018925310    6.38113724698213
H         1.96312731645560    1.57494446420395   10.80404068156640
H         0.93725814938412    0.71279501738512   12.82329770715168
H        -1.52227517652007    0.69014872116470   13.07391756646365
H        -2.93239046102035    1.54432363732199   11.22554298829631
H        -1.89827814832446    2.41390620208439    9.19933514887552
H         2.48423081422282    7.06571260656836    8.29650325451124
H         0.08032325430160    7.21580014717142    9.62294293124872
H         4.77588037410251    5.50065195658217    4.57161981741045
H         5.73467398498912    2.66841891761239    7.60330029305982
H        -4.51285827645372    4.89107598224313    8.66170207105663
H        -2.88310942952466    4.67935164053698   12.59398590641635
H         7.00605009963184    4.56812217315302    4.67642750729864
H         1.37380817450154    6.13449546701858    5.80636210525769
H         2.70533102423378    2.15711555751300    8.82036076571966
H         0.39731929987433    4.01927223631028   11.63034541670039
H        -5.33864029647007    3.66250789856114   11.75083403780666
H        -1.83248927150071    6.16600330671938    7.09149139162930
H         1.42153322454649    3.69373826277986    4.69461125800769
H         3.22985170431045    2.49723753541473    5.13628239028832
H         1.97330232945344   -0.84446953662517    8.80556897124064
H        -0.38181044564577   -0.68173451869949    9.15873349109669
H        -2.53011294621073    2.18178961395132    7.27013289407506
H         2.68570775774658    7.31544959275545    5.80427439764692
H         2.46557774706807    6.25541232894871    4.42002268986808
H         7.49571088662169    3.56978959109426    6.05423185410161
H         6.59218714944856    2.85441943214010    4.72243697514935
H         4.32939006531147    2.38710177499980    9.48295119170867
H         3.06450329983373    3.58143363130970    9.82225608135590
H        -1.36902954610898    4.46439579985516    6.99777357553383
H        -3.06382375932089    4.94522976867111    6.75258508994384
H        -5.39256173149391    5.39828045935967   12.03056401152026
H        -5.98609614034214    4.73248567703638   10.50297048588591
H         0.30431413095935    5.76839457220652   11.85425835527856
H        -0.56101136818332    4.69004286381653   12.95741520869071
H        -1.84522611113724   -0.07739346015355    8.39369059694433
H        -0.92778142723004   -1.38646529737686    7.63425187837332
H         2.16774255660742   -1.51090232248891    7.18456630304689
H         3.29636214910331   -0.29018810872040    7.77267480073754
H         3.85686043995459    1.22235248298322    6.17867654047586
H         2.99985359715593    0.80436767168012    4.69792001344105
H         0.15754141947922    2.74653207729181    3.91074786308102
H        -0.27082097380085    3.97980253303437    5.09646610579995
H        -2.11617877595367    2.61526942526922    5.60839466067816
H        -2.44986664108140    0.93647892959403    6.03099627258054

