35
CSD_code = MOWTOJ | q = 1 | S = 0 | Stoichiometry = C10H16AuN2O2S4(1+) | MND = 4
Au        4.94448810923916   -0.00001748038790    7.66380973778463
O         0.00855567613071    4.58301495244926    7.52752974547891
N         1.94753221193346    2.74811144870815    6.70863831544081
C         2.88043362151721    1.89379494758907    7.03279441821231
C         2.18820727844176    4.16921482266890    6.56409820877943
H         1.84839544204473    4.47706193010344    5.57141332475120
H         3.25170456536027    4.38402850817374    6.67186551852797
C         1.36696361941782    4.91011527645824    7.63563826017032
H         1.75201208448034    4.65054046205244    8.63310671580742
H         1.44232803569430    5.98760464635338    7.48714015831616
C        -0.21250806539388    3.21043048606171    7.70385906803247
H        -1.28656496275992    3.05103211738304    7.60535286365766
H         0.11490035858685    2.88833953662804    8.70368518650861
C         0.54341468885755    2.39976669543105    6.63478003954419
H         0.41203818244558    1.32910585837886    6.79353038367408
H         0.17196763390029    2.67408668221293    5.64360417520414
S         4.53715658470935    2.30185343258474    7.21952909322687
S         2.60310889054408    0.22148736458125    7.30237663569010
O         9.88035477152811   -4.58299662471033    7.79997219981257
N         7.94138552979979   -2.74812797281874    8.61896071634619
C         7.00849418077378   -1.89382165837036    8.29476139199696
C         7.70071657462510   -4.16923305407057    8.76347586602590
H         8.04056060515441   -4.47711162192418    9.75613926623129
H         6.63721536475779   -4.38404541386155    8.65573376608905
C         8.52194023101552   -4.91008782076549    7.69189425707200
H         8.13686750978248   -4.65047684545072    6.69444593304732
H         8.44657297578651   -5.98758230252371    7.84036007960135
C        10.10140330312564   -3.21039816908305    7.62370474838652
H        11.17546091716747   -3.05099036698149    7.72219735599205
H         9.77396729576289   -2.88826695239640    6.62390036405660
C         9.34550126587248   -2.39978330923195    8.69282995308136
H         9.47687942008086   -1.32911138769241    8.53414133165742
H         9.71696472299491   -2.67416084661388    9.68398289538619
S         5.35176269695127   -2.30187681190010    8.10808783251391
S         7.28581867967200   -0.22150052903570    8.02526019389683

