101
CSD_code = MOWVID | q = 0 | S = 0 | Stoichiometry = C49H45N4OPRu | MND = 6
N         9.76000493046692    1.91056530502874    5.53541322955554
N         9.66906433211475   -2.76142233705929    8.63139100036610
N         6.78481139902918    1.54086292380011    6.11130564629693
N         3.05467154037042   -1.87957680971403    3.73221491063216
Ru        8.05387687911941    3.00986135155971    5.08590695239075
P         7.86592562801285    2.29728489248883    2.87125757491613
O         5.90164267091175    5.07578512609544    5.06775037498710
C         9.49837270750149    4.31525550455927    4.48616589983206
C         9.41639678562683    5.58696383390174    3.91467421592367
C        10.54478350492792    6.32300216845716    3.60400629992000
C        11.81878697205395    5.82512877735087    3.86349782261665
C        11.95170099510164    4.58877591897935    4.45150869588531
C        10.80729398864694    3.84471821807347    4.76024596239440
C        10.86198124156963    2.56838714613587    5.39957455166915
C         9.77716518062558    0.72761820803783    6.29295639198282
C        10.10530613521682    0.76631005037356    7.64616267104118
C        10.05098469629217   -0.37205026493523    8.42182125857638
C         9.69746316373295   -1.61142208923462    7.87185956519907
C         9.41813902933028   -1.64572588730756    6.49832695471300
C         9.45934198790284   -0.50314087773650    5.72922650297263
C         8.98390441286032   -3.92410851483883    8.11777664932169
C         9.86493542260533   -2.67972523865737   10.05765878587156
C         6.70755014438589    4.24826999401154    5.00155089400161
C         8.27589360795640    3.59285252763868    7.04303138215614
C         9.02229315674533    4.63350306709127    7.59352247779438
C         9.16344345006826    4.78248639392856    8.96419543440687
C         8.56013705737673    3.89251518408592    9.84493119195237
C         7.80131844013822    2.85808636520689    9.34429084841557
C         7.65959577089800    2.71147211744434    7.96040722582694
C         6.85460404561210    1.67266694707389    7.39088347369310
C         5.86465153339707    0.63903724226853    5.57646651788325
C         4.55079539212014    0.57659796584977    6.04178064111308
C         3.62041537424621   -0.23986489906861    5.43541651708050
C         3.96704533511649   -1.05893297756020    4.35284220548774
C         5.30252868335350   -1.02797805494786    3.92609366155531
C         6.21767404528380   -0.18600449006461    4.51239048771632
C         3.30417832145296   -2.31094887441200    2.37563280431435
C         1.69718998735065   -1.95301367909612    4.20962210103803
C         8.19908859359461    3.59128936868576    1.60712075406629
C         9.17131636251909    3.53902551005467    0.61818097046496
C         9.29569968436876    4.57887032645942   -0.28849121281841
C         8.44746036948621    5.66938410446407   -0.22694403392798
C         7.46168465070457    5.71887234638636    0.74603740080685
C         7.34052418933381    4.68746694892638    1.65516682240168
C         6.25768877188633    1.82370880097480    2.12766366988543
C         5.09158508944384    2.07341088852903    2.83937652640584
C         3.85804132004299    1.77214444806106    2.29158284441946
C         3.78090730480853    1.22715204588172    1.02105469910914
C         4.93864433515230    1.01382480848120    0.28881757240907
C         6.17204084724963    1.32085649921708    0.83285292994072
C         9.00607411579831    0.97485711285032    2.33401576261261
C        10.36669172552771    1.26318405513708    2.45313177442292
C        11.31716059938636    0.29549423515257    2.19080957469312
C        10.92309297252914   -0.97949908146656    1.81530194367234
C         9.57557972885558   -1.27705125568702    1.70330888786926
C         8.61951383010183   -0.30954034883227    1.96442559192511
H         8.44543731252057    6.01955221476760    3.71005232607247
H        10.43914047483574    7.30184145428523    3.15599915987703
H        12.69205945224433    6.41041871998290    3.61328894628744
H        12.92988160980080    4.18378728103011    4.67744661913765
H        11.80530188576772    2.15912321190654    5.76655505302299
H        10.37046799904294    1.71195298490277    8.09899506641135
H        10.28440030923045   -0.27943228783088    9.46947458003570
H         9.17405554360686   -2.57569666116440    6.01195208308285
H         9.27372241788437   -0.56877230599243    4.66729121811472
H         7.96924236432167   -3.68508731705537    7.77861026953322
H         8.91510779485601   -4.67849948687621    8.89798035667445
H         9.53731354141180   -4.35745053402420    7.28050571890450
H         9.88995718767822   -3.68461555108510   10.47424410681876
H        10.82291991369570   -2.20585343777746   10.27746261714149
H         9.06974177380159   -2.11441423459579   10.56079921520602
H         9.50824126903426    5.34911630811426    6.94176599888380
H         9.75308743183657    5.60081275690883    9.35537692152393
H         8.68317320712662    4.01597713872630   10.91168927533777
H         7.31920272770937    2.15336091058832   10.00957476668497
H         6.28956995081499    1.00911000413046    8.05111249462583
H         4.24127850816319    1.22606692656283    6.84911690082840
H         2.60638551748282   -0.21416419984861    5.80011397068592
H         5.62672935691511   -1.66876157564391    3.12192327592874
H         7.23700596787175   -0.16454738174790    4.16019713495238
H         3.74695143706054   -1.50594579071489    1.78129675926621
H         2.36612479330383   -2.60237816372680    1.90790804288260
H         3.97714114338715   -3.17436649246623    2.35449325156513
H         1.19999993397796   -2.79901847717415    3.73784870123254
H         1.12127290660209   -1.04381814846446    3.99183261808728
H         1.69082846428464   -2.12227183053600    5.28672586886813
H         9.83756962641525    2.69185734240485    0.54269986971234
H        10.06089144477407    4.53147197584014   -1.05028894612163
H         8.55038121195301    6.47685211217898   -0.93702775876740
H         6.79023117111048    6.56381690179485    0.79506147598220
H         6.57508010223974    4.71739526697059    2.42023121688026
H         5.16180950706929    2.50544329530803    3.82977127620528
H         2.95744165377308    1.96290113726141    2.85661200998110
H         2.81918688208023    0.98448409293377    0.59176496884734
H         4.87753680313445    0.61334078551125   -0.71339374680782
H         7.07194877583971    1.17968214359903    0.24960709680247
H        10.66780801743208    2.25866983131019    2.75542444317639
H        12.36730576578798    0.53270037050747    2.28366063218874
H        11.66418047854080   -1.73942506115155    1.61507635943559
H         9.26454991651392   -2.27140269249467    1.41515083636807
H         7.57097400679901   -0.55765658508860    1.88004468859167

