74
CSD_code = MOWVAW | q = 0 | S = 0 | Stoichiometry = C32H38FeN2O | MND = 8
Fe        8.84257048487479    4.78999337647339    2.52657905670708
O        10.93965952959933    6.43926588979284    1.45911610650007
N         8.86272699625382    2.06517977735167    1.59413032284963
N        10.88893794538772    2.65026352782057    1.99931129445523
C        10.14282579121384    5.69278684354327    1.83689804074435
C         9.61339023918180    3.08702323923456    2.08103871444652
C         7.48138064465289    2.19082010011839    1.33570305298747
C         7.05369468687447    3.43991672636468    0.84517800797652
C         8.01984887091828    4.53092660423072    0.68869412808995
C         9.66222475448994    1.01652635640010    1.21679577667263
C        10.93733965330715    1.38391791620535    1.47203464975802
C         5.70259404412473    3.58411424723795    0.53682751986820
C         4.79759941708235    2.55095943431484    0.71494342781276
C         5.24784544152340    1.35016534714665    1.24588102130122
C         6.58409154768451    1.15599250901540    1.57633454441235
C         3.34747834758219    2.72113537011572    0.37209471519453
C         6.99565449369109   -0.14336417864376    2.20923176977642
C        12.04615254674784    3.41580657320486    2.29076872064207
C        12.71881749459840    4.05123693728946    1.24882383762144
C        13.85094126361150    4.79269665728750    1.55111296325382
C        14.31837974756280    4.90483871959125    2.85169620071215
C        13.64378871966197    4.23722177055945    3.86567831543915
C        12.51283597378414    3.48354360134504    3.60117007541980
C        12.22186929828695    3.93192868331273   -0.15861448891500
C        15.52496297502821    5.73411781887827    3.17045295529027
C        11.79638769287353    2.72574726414407    4.67271186765902
C         8.14981797078633    4.35130565114451    4.64294714598003
C         7.01305267782184    4.64820414996205    3.84358600832116
C         7.17197904842041    5.96664081016453    3.32582409238540
C         8.41009936512937    6.47499275539859    3.80089980935528
C         9.02434502155818    5.47099085344179    4.61753997272587
C         8.23780857634710    3.12747927206366    5.50385512437702
C         5.75684821871620    3.83702470329817    3.84957127605954
C         6.13378729849630    6.75443577850117    2.59203321897457
C         8.88818302603145    7.88872112690246    3.67484264658206
C        10.23424125392496    5.71539088110458    5.47048833032194
H         9.27930773246695    0.12303127145658    0.77111324746658
H        11.85955720224122    0.85750230114866    1.33259201759237
H         5.36236033564836    4.52704856059790    0.13191774337560
H         4.54357608380904    0.54856198679867    1.41766486365487
H        14.37246484856106    5.30130528620457    0.75348999083560
H        14.00842181234701    4.30647042670560    4.88080020884009
H         7.52831670565858    5.44101424700657    0.34575702486690
H         8.77997286881662    4.26158494855207   -0.04967934342811
H         3.17170595860474    3.67735862246038   -0.11452174060048
H         6.17784158005265   -0.53356340932359    2.81217395063544
H        12.36316133858379    2.91707351073380   -0.53139621240713
H        16.21165893345384    5.18410571941944    3.81143779366589
H        10.73320428541172    2.93902903482513    4.61281549079515
H         9.11461555601940    3.14919169942667    6.14575647309708
H         5.97441847622447    2.77389839624933    3.77550986314296
H         5.52770758576796    7.32685942116737    3.29735365723276
H         9.97310249418401    7.93554784073534    3.71763858797616
H        10.38727586121258    4.90457868427166    6.17728468459313
H         3.01597726869793    1.92505045034476   -0.29300917484351
H         2.73784356163151    2.67505582851308    1.27469051818260
H         7.22892076127954   -0.89196923563051    1.45107817043334
H         7.86729017713052   -0.01741802465911    2.84843243804044
H        11.15827342494990    4.16182780403380   -0.20012391507581
H        12.75441120360966    4.61801602394621   -0.81074489318809
H        16.04769380903213    6.02717904901858    2.26395230977154
H        15.22537169076019    6.63778549677850    3.70069634794439
H        11.93580285318519    1.65310318093675    4.53290579109122
H        12.17019178447595    2.99545897644336    5.65633593063073
H         7.35427970598438    3.06950905534732    6.14158797011491
H         8.26877882489990    2.21852976766480    4.90364331688526
H         5.21139973127746    4.00809688328629    4.78130375474830
H         5.10709604493459    4.10758100852549    3.02287365276317
H         6.59667823256458    7.45304746854864    1.89855129830120
H         5.47382814483276    6.09714828995988    2.03233591512444
H         8.56490851705379    8.32469365138456    2.73311411624160
H         8.48402384558009    8.49523549727331    4.48854602087828
H        11.13291394242875    5.81441594803015    4.86385612993884
H        10.10438575879380    6.63820723750004    6.03688577891974

