74
CSD_code = MOWWIF | q = 0 | S = 0 | Stoichiometry = C27H41BFeN2O2 | MND = 8
Fe        5.39285182503909    3.42249927947827    7.10563169106400
O         5.29747844039913    3.42249941150473   10.10963073266386
O         3.17686245261916    3.42250009341963    9.16813315319633
N         3.01571012675789    2.34625778052798    5.83691425587212
C         3.73838005727170    3.42249994503073    6.19965546113883
C         1.82154909149256    2.74149841925424    5.26849641421591
C         3.46461253910516    1.01770528899804    6.19153083256496
C         3.35790071424638    0.00786572368947    5.05068462046105
C         2.74377189712525    0.52980376165560    7.44694262977010
C         0.77787720510251    1.81610092066973    4.74843313638025
C         4.36630833515765    3.42250136536729   11.08337261762292
C         3.08027989733040    3.42250185341753   10.51494177700842
C         1.95013693247098    3.42250409704204   11.30397214710155
C         2.13163544033187    3.42250578904068   12.68314004807823
C         3.39714292083254    3.42250522481023   13.24329467375303
C         4.54037599783320    3.42250298058624   12.45099312637823
C         7.38112904296083    3.42249846083540    7.56930675360589
C         7.06814233558249    2.27368186057978    6.79119136716850
C         6.52546011760347    2.70725238617597    5.56238820031744
C         8.04541109562990    3.42249768414136    8.90101660709149
C         7.25967332611931    0.86523476367206    7.24216808842456
C         6.18038088972100    1.89013473988642    4.36387374615023
B         4.59027299882883    3.42249926862988    8.87073973023920
H         4.88952844869829    2.41260467109466    8.05908261840490
H         3.50306327655183    3.42250647577750   14.31812749833719
H         5.52761886435770    3.42250245941807   12.88544747568270
H         4.51624144277090    1.18522081718286    6.45000537463441
H         1.26441557386470    3.42250757170327   13.32688270395927
H         0.96510422853872    3.42250463625370   10.86405091971172
H         3.64241979885094    0.46062229764335    4.10549757388829
H         1.10198386259015    1.33402291245237    3.82649430097578
H         2.80852850440835    1.29693790371226    8.21208916498768
H         8.30648029463701    0.57034895131341    7.15731015096647
H         6.13106933802912    0.83312897122873    4.60466248056317
H         9.13263296565017    3.42249777176740    8.79999769285276
H         4.02853832682167   -0.82466859014151    5.24708607356420
H         2.35236946321484   -0.39220825876454    4.95991910305052
H         1.69541742221824    0.31895751004837    7.25121504664683
H         3.21559872353607   -0.37741889388911    7.81357556986724
H         0.54002299533112    1.04545227507917    5.47736589439402
H        -0.13200490720422    2.37074203563353    4.53533144376448
H         7.74791201104882    2.54596368611678    9.46814829918491
H         6.96035600356820    0.76731810850111    8.28262284979607
H         6.66130121984074    0.17956341242419    6.64771043833900
H         5.22101612975662    2.20626240234513    3.96146620976146
H         6.93282127038980    2.02585797765465    3.58496642623956
N         3.01570612099445    4.49874149845340    5.83692052309709
C         1.82154491378454    4.10350001519053    5.26850281837501
C         3.46460908618669    5.82729413178712    6.19153589347760
C         3.35789674360297    6.83713207241877    5.05068820111670
C         2.74377047404113    6.31519787799154    7.44694786880911
C         0.77787041597554    5.02889708139805    4.74844424972283
C         7.06814293958607    4.57131580384248    6.79119225971323
C         6.52546019784435    4.13774643667278    5.56238886527967
C         7.25967495047463    5.97976247456562    7.24216974727350
C         6.18038046476403    4.95486524731138    4.36387536427964
H         4.88952905782201    4.43239403550294    8.05908235149290
H         4.51623834544290    5.65977840135104    6.45000911220849
H         3.64241524680028    6.38437388054453    4.10550173204547
H         1.10197340880244    5.51097651567700    3.82650480547017
H         2.80852704401921    5.54806446194962    8.21209510893846
H         8.30648191461156    6.27464797395619    7.15731060520323
H         6.13106845225756    6.01187071477976    4.60466532586150
H         4.02853469990309    7.66966651863329    5.24708789558483
H         2.35236552566065    7.23720612264407    4.95992252679277
H         1.69541607205628    6.52604536673391    7.25122126294902
H         3.21559894240073    7.22242031356920    7.81357924721854
H         0.54001837009592    5.79954459117758    5.47737883357892
H        -0.13201206870560    4.47425556434976    4.53534515666143
H         7.74791198402212    4.29903096864896    9.46814940002015
H         6.96035905133981    6.07767854476279    8.28262496333197
H         6.66130225935173    6.66543436054031    6.64771330722795
H         5.22101573004669    4.63873762187044    3.96146774131125
H         6.93282071978687    4.81914320070732    3.58496771311954

