73
CSD_code = MOWWUR | q = 0 | S = 0 | Stoichiometry = C29H40FeN2O | MND = 7
Fe        4.26936769547930    3.03179863200542    3.35362349881002
O         2.27123104629501    4.23678455980739    4.07150291026200
N         5.68683614389439    5.53602443808561    2.40775039447092
N         5.41217740851004    5.32624596107643    4.53782675150169
C         5.19872220259217    4.70476274625727    3.35146605801612
C         4.51358993981777    1.61856209440303    1.73324743307527
C         5.50754074860981    1.32734572908192    3.79241389626442
C         5.74629347218536    1.69083537975963    2.44237265395818
C         2.78070014998233    4.05093438646320    2.79519305787682
C         7.10288552231921    1.96961694569033    1.87514377135893
C         0.97810710693961    4.63023045952968    3.94884003904876
C         1.81890930823280    4.34039229086366    1.87577199946642
C         6.20269572521400    6.67711875089856    2.99326332001321
C         0.07919649132344    4.91900732732505    4.95723513748149
C         0.63737237065116    4.72041752957766    2.58232094320931
C         6.56826423622640    1.07535401008313    4.81798532452223
C        -1.19529858944873    5.30484043874683    4.57760353131027
C         6.03516659621273    6.54271035813959    4.33838772982645
C        -0.65113899289679    5.10940524586711    2.22766893312740
C         6.40773811596684    7.50596790567533    5.41172623755154
C         4.11793306961678    1.00983358736457    3.91321047776187
C         4.29300994099766    1.76516011641545    0.26018489818032
C         5.53026620044779    5.21231065324302    1.00537310901228
C         4.98960344300402    4.68364829117007    5.76786830361379
C         6.85068419945436    7.79722972616711    2.25652390331631
C        -1.55131689133157    5.39649815555364    3.23386843157113
C         2.10228278275846    0.83157684632761    2.27373368482932
C         4.46602768313951    6.08834092633523    0.34738452911394
C         6.85120450660604    5.24946482144101    0.23978366117230
C         3.99465923987726    5.53211984934623    6.55325348522376
C         6.18109634959048    4.24685544297033    6.61840420469913
C         3.43854501861103    0.50381440149444    5.14717843336489
C         3.50900756679825    1.17549876164328    2.64572308008788
H         1.91954024064740    4.28509507032597    0.80974570140705
H         0.36126114364482    4.84126487437156    5.99672306071123
H        -1.92755078320936    5.53707437584892    5.33719468561689
H        -0.93734852465596    5.18082333067265    1.18817687144849
H         5.14786940233752    4.18661333102155    1.03452536715007
H         4.46734828400864    3.77288539923257    5.42183626810686
H        -2.55748454759892    5.69865938688727    2.97867039842444
H         7.03725035005950    2.30753339300089    0.84572778143080
H         7.70967968450642    1.06296216234940    1.89952942735196
H         7.61686471908004    2.73274414892947    2.45703129972099
H         7.41275038995609    1.74520692154758    4.67030717240615
H         6.93739100815860    0.04986525298691    4.74032808752303
H         6.18675221936317    1.21630287565199    5.82682522427577
H         5.53749306776088    8.07204457333583    5.74558782601111
H         7.14467519867012    8.20998899242357    5.03447724630000
H         6.83864311735891    6.99810310487770    6.26988803930375
H         3.45397644106767    2.42955187853060    0.06721400017958
H         4.05895353465712    0.79354762374640   -0.17818987002368
H         5.17291926741167    2.16007834179099   -0.24082903904342
H         7.83866914514421    7.50865642505240    1.89678225987100
H         6.96537876105919    8.65259159698720    2.91664592682895
H         6.25168648921293    8.10963147122823    1.40544496460974
H         1.46947529736348    0.77743833598220    3.15581730543038
H         2.06545082006537   -0.13380459973862    1.76535477527203
H         1.69114886851982    1.58608591529880    1.60692368743988
H         3.56242498542913    6.06604006757722    0.94938190583606
H         4.23719471804324    5.69757553021475   -0.63996616584507
H         4.79475753689087    7.11823926807015    0.23697242130518
H         7.14841503551670    6.26679567892627    0.00198037189786
H         6.74099799457592    4.70674410625022   -0.69536986754225
H         7.64010159411575    4.77952367325639    0.82074859193777
H         4.47081542996507    6.40097734923506    6.99848790288963
H         3.56067923601217    4.93413787198173    7.35009964542111
H         3.19469370338593    5.85985078340212    5.89503768465798
H         6.91285435005383    3.74176927768961    5.99471312500169
H         5.84627414496190    3.55887641415426    7.38986991028343
H         6.66013294398061    5.09071925877255    7.10771169801756
H         3.99703599670063    0.77614145439400    6.04062158458465
H         3.35230105631246   -0.58395930034319    5.12030571378071
H         2.43536787174934    0.91921761518858    5.23083318689760

