50
CSD_code = MOWYUT | q = 0 | S = 0 | Stoichiometry = C17H24BrN4O3Re | MND = 6
Re        2.12574925278340    3.35678943174439    2.60489762038910
Br       -0.06873979688535    2.17902349126239    3.43637008022371
C         1.87701129942251    4.36547200552114    6.81598531852510
C         3.04405886370432    5.06420954436576    6.55876578211710
H         3.60745774709633    5.67300296100754    7.23377667669482
C         3.34512310028457    4.80960133082074    5.22128557885896
H         4.17584950781315    5.16345585471065    4.64116545010702
C        -0.83779349892598    6.52490168518298    2.81865081423154
C         0.25589993152578    7.34993967472432    2.61941257895907
H         0.27462045745470    8.41861086182633    2.58342214503196
C         1.34737015155200    6.49478627978097    2.47095776183496
H         2.37611478912673    6.74433960626917    2.29394147733748
C         1.61308176186826    2.87687100190620    0.78898028935753
C         3.05075275165878    1.66456171127895    2.87444417079753
C         3.74083189366797    4.23728408500947    1.99527462777650
C         1.02669817451927    4.22501995783734    8.04298827180691
C         0.99197719492900    2.74833649753135    8.45911873608360
H         1.99869115771127    2.38439167706701    8.65291611168576
H         0.54455199288957    2.13008412852643    7.68444204186273
H         0.40444025225438    2.63339528172411    9.36648534792773
C        -0.39450008406363    4.70751191674395    7.71917549292892
H        -0.85699727614096    4.09015225386985    6.95243905198436
H        -0.37538159176581    5.73885966462685    7.37174145582318
H        -1.01389277257057    4.65846775189030    8.61103852747539
C         1.60932683460446    5.06650645669232    9.17963084861688
H         1.64540517052753    6.11719453665111    8.90123872562699
H         2.61528429856058    4.73523278649129    9.42511915627196
H         0.99049100560110    4.96836321360677   10.06803067386554
C        -2.29301491468256    6.80294478550853    3.04945773148479
C        -2.71549478656081    6.17002914174459    4.38297878863587
H        -2.60681867157257    5.08811449924664    4.36048974841926
H        -3.75806765881527    6.39999415198707    4.58674856728497
H        -2.11277698521554    6.56280569403219    5.19949677875134
C        -2.53454319029285    8.31253309868168    3.09643750679245
H        -1.96445302170969    8.76868570814062    3.90244840222511
H        -3.58928477668700    8.51363764684326    3.26630084142159
H        -2.24476141571458    8.77678750807573    2.15702929501127
C        -3.10407582839011    6.18602324564792    1.90193255064997
H        -4.16069775276979    6.40232153854641    2.03767304650942
H        -2.98032718800384    5.10622865755904    1.86763490185822
H        -2.78793776653240    6.60029029211629    0.94696299756309
N         2.42777336909362    4.01293517086706    4.69195191682768
N         1.55263750889051    3.75628344903275    5.66509204630078
H         0.76328702244046    3.13954929400894    5.47494991373129
N         0.95435879919207    5.23328536474097    2.57374161338620
N        -0.36279500180025    5.27051884536209    2.77946060867591
H        -0.87294986626119    4.39771701832599    2.90552168787531
O         1.24842984478585    2.59311139312213   -0.25955950625655
O         3.54514692861728    0.65118616726929    3.07609274993163
O         4.70168278290685    4.73685168049462    1.61676299867196

