45
CSD_code = MOXBOR | q = 1 | S = 0 | Stoichiometry = C17H7F17NP2Pt(1+) | MND = 4
Pt        8.84087220561427   12.22069796400959   11.63760040005642
N         7.59679267852847   10.94131111662129   13.00425165941505
P         7.91272645720753   14.21924205625734   12.11206622151538
P        10.13935106871513   10.61148740300041   10.73915252509591
C         9.98512913945163   13.40127461455882   10.39676389174907
C        10.78535078261535   12.81913767071589    9.40860885795814
C        11.56219026687936   13.62418510259147    8.58364305314469
H        12.18121602862310   13.16707567542140    7.82764296186730
C        11.53990378669534   14.99938910866761    8.72231889893992
H        12.14107600601749   15.61714909627981    8.07523658851898
C        10.74460223480601   15.58098870419435    9.69190703091497
H        10.72395035927092   16.65388006610375    9.80222566917706
C         9.97105535469175   14.79287531767620   10.53603046542616
C         9.13857492672531   15.46253268735329   11.61191683667789
H         9.76992557115652   15.69402837484215   12.47965663867164
H         8.67785569594242   16.39366924620073   11.26140327900135
C         6.53635262302811   14.41148994869122   10.83137117827037
F         6.86760963992523   13.62297261236855    9.79578865569097
F         6.38748061199701   15.64767519457978   10.38175204251728
F         5.37435580506328   13.97918300494668   11.31519545380295
C         7.02216920993177   14.93710374296088   13.62193357489797
F         6.18469958277930   14.02995526344993   14.12980508771414
F         7.90954572816913   15.26233161087805   14.55316585647486
F         6.33216996205744   16.02214144977101   13.29203717351250
C        10.80356432901453   11.31726002252384    9.20268797535619
H        11.80600781492034   10.94246309689394    8.96455367132618
H        10.12932065675193   11.04834935588588    8.37910976665956
C         9.90363494654338    8.76262873068734   10.40204070806286
F         9.31753528116950    8.17802174540557   11.44867533848640
F        11.07087359815469    8.17160914217440   10.17739911022412
F         9.13028387974148    8.59812673637740    9.33656120302114
C        11.64676262816318   10.52328720600043   11.87409138309233
F        11.47378902257888    9.60452674956956   12.82150134043707
F        12.78523295181486   10.28658239156803   11.24155394735683
F        11.73894553869003   11.72035504363305   12.47581459119048
C         6.89153416529033    9.93513349953419   12.51544226972823
F         7.00230851140632    9.77232245277284   11.20605566230692
C         6.10498065241029    9.10986473756669   13.31366639048192
F         5.41648485345815    8.11294875900369   12.79967720145721
C         6.07082987657881    9.37935895815168   14.69004106671331
F         5.34610493906336    8.63718740437845   15.49102313701026
C         6.81887885390564   10.45030606228128   15.20189393262987
F         6.80805198204819   10.73336125835875   16.48704385210964
C         7.56996830018522   11.19897894866106   14.30101996346112
F         8.30865149219338   12.23465066633693   14.67027348786113

