111
CSD_code = MOXFEK | q = 0 | S = 0 | Stoichiometry = C42H65NiP3 | MND = 3
Ni       10.81636863113681    7.00907302188240    1.45308999668118
P        12.64585553506663    7.72938506800640    1.93026102293954
P         9.48481233211681    7.36470627497917   -0.23842355489319
P         9.66740486742793    5.34547648169146    2.25974470947459
C        14.01284917553708    8.59276511431499    2.64530988106772
C         8.34466170329804    5.88523788779053   -0.18448897510135
C        14.33840625137077    6.76938381038955    4.33610585150171
C        13.56904960355613   10.70989995202296   -1.44904692878636
C        14.72212896974830    8.06925724196233    3.73852485777015
C         9.53204360600691    6.68634993241008   -3.08629279052713
C        13.72656199953571   10.38408717135653    0.92382379147999
C        12.05445636528366   11.84194755812361    0.00693867150907
C        12.64635969250111   11.24741747517745    1.11069555980655
C        11.40918902025212    6.00356180201114   -1.59993181982844
C        14.18393841286233   10.10344256674850   -0.36522105280535
C        14.79728104511426    5.57699995749791    3.77305453855352
C         8.09800632073012    5.39268568227765    1.24792758738855
C         8.30690967221730    8.84534747896032   -0.36531292641202
C         7.26897187764302    8.69051612099210    0.74822630569328
C        12.50933170011123   11.58955157738516   -1.27850423739832
C        14.43329323489220    9.81514382061611    2.09510256636501
C        15.79356965550312    8.76668238064479    4.26857862796098
C        10.38299249686029    7.10730813504995   -1.88953429600292
C        13.29819166457825    5.52388291125234    6.10654640222839
C        13.75675724411353    4.33139521594191    5.56632051746859
C         7.73031205101913    5.06135591194595    4.43944399273435
C        13.57480134266617    6.74149427575251    5.50423421721523
C        11.88054579677677   12.26296158652734   -2.46277786944160
C         7.57963568578159    9.00607108325114   -1.69554376054811
C        12.13108714627779   11.50496514376735    2.49398638092814
C        15.51087193162922   10.49080048447652    2.63705652295163
C        16.19473130723484    9.97644052682262    3.72683817755569
C        13.04389248629009    8.02075158341389    6.07859252358914
C        10.23431664097442    3.14427169393633    0.68866911224088
C        15.59326263410698    5.60385838338072    2.50417982682706
C        15.31748048866686    9.14264407007198   -0.56017845922368
C        10.14382769240034    5.45306798200284    4.99618802419920
C        11.67463224753129    3.50206441697493    2.65983394940342
C        10.22653599328987    3.53733074368322    2.16725937484214
C         9.36749900640733    2.54044191050155    2.93704959219407
C         9.13828921031658   10.08973007032598   -0.04741967129651
C        11.15696618376772    8.38464899942149   -2.21034088994163
C        14.49823497262880    4.37468983571871    4.39501735746639
C        13.46770026440991    3.02356959408633    6.24310951120740
C         8.80752043117567    7.26294359384984    3.97751200315162
C         9.02378222560966    5.74354614275605    3.99938780532589
H         7.39415905098443    6.10761828507068   -0.67843883806107
H         8.84089233470175    5.09724427621669   -0.75264816950328
H        13.92373904628899   10.49634728977762   -2.44827276882718
H        10.19526813217648    6.38368930176756   -3.89690214142971
H         8.91325928412725    7.49794048070145   -3.45373375119386
H         8.88904675306977    5.84091587993215   -2.85214108729632
H        11.22412364770893   12.51933517597339    0.15286901974921
H        12.21471380716251    6.03037800386498   -2.33188160098785
H        10.95325237676526    5.01679908469057   -1.64693405449744
H        11.85289669801346    6.14824429501881   -0.60475302196086
H         7.61310922980884    4.41202798935030    1.23542893878751
H         7.42967752401071    6.09020833206195    1.75475124123175
H         6.68514878292007    9.60630333283996    0.83996011181932
H         7.77101206599316    8.51880245128159    1.69728114984211
H         6.57636864718524    7.87546009084359    0.54869928547563
H        16.32624382083028    8.34565896247246    5.11119326211982
H        12.71109311248197    5.50315458524489    7.01476899505215
H         7.39681796174248    5.51357807054153    5.37379221320479
H         7.86978473640557    4.00039646044923    4.61812205603159
H         6.93394675749799    5.18584526133881    3.70909939975176
H        10.85419884067437   12.55295169848150   -2.24720831038598
H        11.88902646269024   11.60716758094262   -3.33127570816203
H        12.43778519271055   13.16478171273592   -2.71926656315252
H         6.81389101807867    9.77575661606355   -1.59486556329250
H         7.08681997334162    8.08281684133460   -1.99487797165621
H         8.25646994664114    9.31913539934190   -2.48543569429374
H        11.34812488569265   12.25939079509188    2.48485620798176
H        12.93577855327106   11.83321370323806    3.14974133768768
H        11.72428405102712   10.58226320586916    2.91095433251558
H        15.81482958650565   11.43167809102679    2.19730173284426
H        17.03504955748608   10.51032568463571    4.14567229954714
H        12.41992558436081    7.82643202548200    6.94781357263000
H        12.45308859987589    8.54753714059857    5.32956992164910
H        13.86023351249760    8.67878276384463    6.37238851676732
H        10.72247043755895    2.17773212185546    0.56572223283580
H        10.79718138611652    3.87780818776304    0.11657682249647
H         9.22750709606840    3.06034257893025    0.28479260215667
H        16.03266168841995    4.63047177756975    2.29982270479488
H        16.38432938516588    6.34923242749523    2.56194323534905
H        14.94435503909500    5.87634010376741    1.67012402981478
H        15.57882223446352    9.05748231677396   -1.61218108141206
H        15.03676364978007    8.15817822059964   -0.18582870613776
H        16.19461385221094    9.46662188795545   -0.00236161946601
H         9.91329689824312    5.90459315029183    5.96057366107820
H        11.08249563490699    5.87592967647616    4.63791194716043
H        10.27747686136877    4.38653020865406    5.15521412817408
H        12.12845050651691    2.53826831120091    2.43281565493333
H        11.74601941967305    3.66665042671323    3.72964020423324
H        12.25665308314613    4.28160858754218    2.16509903403514
H         9.68182933630281    1.52715717652143    2.68580539407095
H         8.31491464073294    2.63728106310331    2.67678198716802
H         9.48006980767664    2.66146144444595    4.01060761877660
H         8.48878290144886   10.95101163775659    0.10511967470241
H         9.83657905372385   10.32638638626552   -0.84323249333974
H         9.71698395281965    9.92824499354480    0.86331039122310
H        11.87525047690997    8.19752093953549   -3.00772468553135
H        11.70694640078805    8.72187146721375   -1.33131770438430
H        10.49809821832701    9.18281802869460   -2.54109525478837
H        14.85471345711281    3.45123372176290    3.95950683027126
H        13.41844802837054    2.21374623466623    5.51794425837829
H        12.52714602605670    3.06798907670953    6.78897618611166
H        14.25832044704107    2.78836532043802    6.95682975587473
H         8.81578170256311    7.66766839914765    4.98826061958571
H         7.85188479876017    7.52102245608593    3.52604677978870
H         9.61787722747004    7.75089813021161    3.41129541451819

