69
CSD_code = MOXKER | q = 0 | S = 0 | Stoichiometry = C27H36Br2N2NiO | MND = 5
Br        8.44893086722540    1.33057432429970    0.14551419999917
Ni        9.17366335072243    1.88159643949525    2.30282928727295
N         7.85062782550219    3.04603533763239    2.44340671161619
N         7.88536187369205    0.74532492915730    3.80011985489772
C         6.86813705479603    1.49939982229572    3.98953951290338
C         8.53156059682221   -0.40464287597583    5.85727213906737
C         8.83088226765609    0.88852436046476    6.57462855123464
H         8.57431524493901    1.73522118373845    5.93128869437705
C         8.09309290218987   -0.43996685328100    4.52528496956671
C         7.93509269395437   -1.66036289023431    3.84795232029162
C         8.55547208454795   -2.82040963087074    5.86421309600010
H         8.72051511341671   -3.74714603558405    6.39307882166795
C         6.79696871479918    2.74297459211030    3.22465917755207
C        10.63901751638112    2.32782452492021    7.56214789812331
H        10.41359590847378    3.13932469763601    6.86880288698684
H        11.70407766057765    2.37871743977431    7.79381247296072
C         5.69495456547579    3.60217379235113    3.31972481229990
C         8.76087388998073   -1.61328521968413    6.50179676669055
H         9.10194415814010   -1.60860423820936    7.52530722509753
C         7.48910731099332   -1.65909575555559    2.40746158658235
H         7.75861529381537   -0.69143483377658    1.97048424505116
C         7.87346795512724    4.19263135539694    1.77142010228263
H         8.75102392092983    4.39229003641326    1.16624333108608
C         5.72370419553324    4.79142803404384    2.60718235622016
H         4.88689297152817    5.47123948041582    2.66084476128987
C         5.96431355567409   -1.78897253967679    2.30408251097531
H         5.48334928790189   -1.01658007337009    2.90948203841622
H         5.65643756801087   -2.76073097990484    2.69922777873136
C         8.14209295541219   -2.75275399617238    1.55887982267855
H         9.23108500398278   -2.69674008632260    1.64506995732631
H         7.83285083689558   -3.73865905218809    1.91121060381623
C         8.04023097382756    1.02040262511312    7.88101335435385
H         6.96893037648721    0.91266293328239    7.69071816939227
H         8.32898099248620    0.22342623400794    8.56835635406789
C         5.74397950624402    1.20848601182634    4.93614970449369
H         5.70348446470517    0.13449166918012    5.13257516433694
H         5.94942419665488    1.71327207836619    5.88504292376779
C         4.52174842740290    3.23587978949011    4.17676599351062
H         3.60746154844054    3.62715490606786    3.72690987036806
H         4.63981308468957    3.71925209307450    5.15284103027518
C         9.82056053064494    2.49220590519277    8.83830068309637
H        10.02822723228340    3.46414707627679    9.28974642628168
H        10.10621952060900    1.72099756085207    9.55836725793563
C         5.52675532916271   -1.65317707266942    0.84874169339923
H         4.44054207047366   -1.74657914735371    0.77868356008602
H         5.80797248875839   -0.66515912383196    0.47866398328099
C        10.33067724623280    0.99806045473747    6.88254830210805
H        10.63791854711957    0.17145234007922    7.52628150472916
H        10.89797837940462    0.93266496691561    5.95322446239270
C         4.42760217259390    1.72654385593382    4.36655025302833
H         3.60695802661184    1.48324812485029    5.04252291728896
H         4.22783145022030    1.24792566100691    3.40478687661674
C         7.71688437641600   -2.60178852497306    0.10078019914941
H         8.03202970868209   -1.62872260654058   -0.27931522877442
H         8.19610248882701   -3.37374440855151   -0.50489205772692
C         6.83093545815516    5.09604321105829    1.83101550016480
H         6.88584387429368    6.01490821596381    1.27089643719580
C         8.33095762825170    2.36768999425664    8.53435695052725
H         7.74975438782714    2.46694663820574    9.45437609703980
H         8.03367492244796    3.17444839694415    7.85947878621369
C         6.20014654002587   -2.71402289355069   -0.01572153608280
H         5.87956308745420   -3.70773597593180    0.30900639489048
H         5.89926039194212   -2.58647312437852   -1.05661192066605
C         8.15178696201979   -2.83987607970401    4.54223265964126
H         8.00471145786669   -3.78625341163828    4.04716041023985
Br       10.44545923889264    3.15349587682184    3.79012724451133
O        10.64047320664096    0.48615460199946    2.18157307255686
H        11.12873236509284    0.28747494360404    2.98962085507059
H        10.42966219500998   -0.33239908532406    1.71465715817822

