75
CSD_code = MOXNET | q = 0 | S = 0 | Stoichiometry = C30H38N4O2Ru | MND = 6
Ru        2.48080787328717    2.53444717759462    9.29245519491839
O         1.19840934345716    1.06427422342572    8.46871067824009
N         1.39028305986334    4.01524430844197    8.53132781654715
N         0.33911024336849    2.02259351881959   11.38920180807609
C         0.00546381007741    1.35065810398690    8.12309448773075
C        -0.88497482940347    0.25908265664013    7.89237371949424
H        -0.46908658292176   -0.72950637974794    8.02524388679219
C        -2.18997025697789    0.43170837391626    7.52831996847417
H        -2.82730706309174   -0.42839933445854    7.37652703127922
C        -2.70841055886533    1.71850181052858    7.34903092025005
H        -3.73964804986128    1.85565120910890    7.06125064364800
C        -1.88450524945415    2.79706814452744    7.53262673456202
H        -2.27741003495887    3.79508611566848    7.38258364458522
C        -0.53605788087219    2.67054307362033    7.92321131738476
C         0.19602080298694    3.89050138116082    8.06488788861400
H        -0.35006627005941    4.77634643686594    7.73831315360793
C         2.08967723659307    5.28685600176915    8.62136585870769
H         2.83674761827201    5.30137862407638    7.80874292323438
C         1.22801035792082    6.54792433579074    8.51162203613876
H         0.47386813080591    6.54305432134402    9.30248336657666
H         0.71873193581697    6.57024481883281    7.54656520988131
C         2.10005099843900    7.79455360400300    8.63324013178500
H         2.80978271047509    7.82104312824719    7.80335748852142
H         1.47336704513089    8.68554209932781    8.56519935771148
C         1.25703430987888    2.36657888243767   10.75996838087032
C        -0.82062225080956    1.52473023628832   12.01715597241222
C        -0.93427053290607    0.03717935295618   11.67334515804626
H        -1.81580303025237   -0.38742541299007   12.14748981671709
H        -0.05208186259863   -0.49748643518088   12.01749189515626
H        -1.01316313947762   -0.08897034612633   10.59575335625018
C        -2.02309533921173    2.29832565180206   11.46561160510885
H        -2.93918604411585    1.92861369806817   11.91885147112112
H        -2.08802128420947    2.17184942946699   10.38686074436821
H        -1.92740543817839    3.35993075314331   11.68503006658091
C        -0.68232320060857    1.73024670281192   13.52860211613945
H        -1.56436892044886    1.34843402192972   14.03618301460669
H        -0.57494156621176    2.78773989867037   13.76174806516398
H         0.19303919473508    1.20346714252999   13.90181042268314
O         3.76332998861317    1.06440837582309   10.11633265613553
N         3.57142901675371    4.01497617568895   10.05423520586893
N         4.62257482809455    2.02274059486560    7.19555755179030
C         4.95644951338914    1.35060712287379   10.46153151668311
C         5.84654246362365    0.25894439262433   10.69322555721337
H         5.43062233037987   -0.72961063122343   10.56017851565633
C         7.15150276582092    0.43147677590419   11.05751404528913
H         7.78900915788826   -0.42864910182736   11.20852552124150
C         7.67014035178466    1.71825291586463   11.23635492296848
H         8.70150115264060    1.85537244610579   11.52370306753787
C         6.84630642607127    2.79685721014845   11.05268165867109
H         7.23930007760061    3.79487056273210   11.20250472214396
C         5.49792296340247    2.67038372442715   10.66191767677258
C         4.76572679535362    3.89027788580096   10.52062509846916
H         5.31195618034836    4.77616361134977   10.84687465765324
C         2.87223345553057    5.28669660652348    9.96393247976106
H         2.12516674740274    5.30146939808813   10.77653423668820
C         3.73383061954704    6.54780601279780   10.07352469075299
H         4.48804350170186    6.54275828292956    9.28275231991343
H         4.24301356830173    6.57006672930705   11.03862029133306
C         2.86217022998273    7.79469033807727    9.95172743703829
H         2.15246716121275    7.82131542796636   10.78161572051771
H         3.48895544570901    8.68565182753474   10.01968656542369
C         3.70478116436979    2.36650847440847    7.82515297773401
C         5.78244875557668    1.52488025469178    6.56792806366798
C         5.89586613338666    0.03741750668308    6.91217730803456
H         6.77752664110940   -0.38711348470283    6.43830627214925
H         5.01383729139449   -0.49735436865678    6.56781998320532
H         5.97447673616364   -0.08860490110627    7.98982665362905
C         6.98464283778315    2.29872623395028    7.11973562544375
H         7.90080031567336    1.92900223719121    6.66669025266705
H         7.04944730746102    2.17245649387350    8.19851271087067
H         6.88895445235428    3.36029231566679    6.90014312664448
C         5.64422281463172    1.73030207759287    5.05646431806734
H         6.52663331427217    1.34889154782614    4.54927553799113
H         5.53642508350835    2.78774042426546    4.82316571209508
H         4.76925712547125    1.20301717453452    4.68300799033076

