48
CSD_code = MOXPEU | q = 0 | S = 0 | Stoichiometry = C20H21N3NiO2S | MND = 4
Ni       -1.71980451136734    1.18790670194746   11.55606716601951
S         0.24019175653267    2.54722704198666   12.08520706659464
O        -0.15055954515434    3.93195212684596   12.20661071143241
N        -2.98106447388898    0.34347960666034   12.71179826683400
N        -2.84901317799158    2.83749755576144   11.92472999158510
O        -0.14434838597143    1.69562252139310   13.21107261878852
N        -0.27713090423716    1.94154870754992   10.66900514328713
C        -0.71328719997869   -0.26188194667819   10.79280633436624
C         2.03991277627383    2.55184051159280   11.99186263196235
C        -3.34204403286283    2.66645044239554   13.16391511735895
C        -3.09461093283535   -0.94715093311613   13.02287882703476
C        -3.70001116733397    3.75595992638902   13.95411710839979
C         2.64489828161378    3.23010951639269   10.94953810832778
C        -4.04491248571991    0.87491109467151   14.79014101309664
C         4.02434534763082    3.27307636020917   10.87452776403407
C        -3.05497495561054    5.19299212710143   12.15954590463976
C        -3.46248757909843    1.25970989746315   13.58468151811713
C         4.18116219903692    1.97532922400928   12.88313742104342
C         0.39117141449281    0.67938383842030   10.33781704507770
C        -3.66232959614668   -1.39829703377758   14.20088573196781
C         2.79866810918514    1.92820531649635   12.96114599534134
C        -2.70534674653414    4.06005935590764   11.44030640477119
C        -4.14206332396983   -0.46671292148290   15.10932197204204
C         4.80789568638469    2.64473625102085   11.83976831654852
C         0.72979518447124    0.62536304797795    8.85201172987342
C        -3.54668778263668    5.03363405774083   13.44386308390704
C         6.30263139612409    2.70549647857634   11.74579880447669
H        -1.22772938682935   -0.73237569894762    9.94560114246541
H        -0.38343934929511   -0.98904265613132   11.54382739047788
H         1.31247491954109    0.56272111286321   10.92772777082342
H        -2.72554188713354   -1.64991585651388   12.28858892862355
H        -4.07032253257694    3.61895261487241   14.95731327958146
H         2.02025090146061    3.71337150582467   10.21438500784744
H        -4.41968670339895    1.61714424444324   15.47574068019085
H         4.50548565458610    3.79816466459036   10.06167323955795
H        -2.91943173856924    6.17270274779374   11.73127815717561
H         4.77760326945175    1.48595608962538   13.63990949963201
H        -3.72705532727422   -2.45588862417792   14.40112524074099
H         2.29095844719411    1.41090159162947   13.76104249233999
H        -2.29857060941583    4.13180659051251   10.44118125809223
H        -4.58766517037338   -0.77849957881984   16.04187635642749
H         1.13003167081661   -0.35353983889996    8.59800154764044
H         1.46741561707916    1.38583044974388    8.60727060553209
H        -0.17058257533887    0.81120015905419    8.27228565986988
H        -3.80511638489408    5.89238589698442   14.04612766135586
H         6.76751741343822    2.09348169026117   12.51420769679858
H         6.64522744780981    3.73262235311873   11.86696669815513
H         6.63728097330768    2.35717166870605   10.77000788972746

