81
CSD_code = MOXRIB | q = 0 | S = 0 | Stoichiometry = C23H51CoN2OP2Si | MND = 4
Co        1.75644560482633    2.62663191967624    4.36153347480151
Si        4.41522128283374    1.92008573994093    3.90013562889827
P         0.76221118096619    1.53319705306154    6.04212997654283
P         0.64106781214911    1.95737538652261    2.27842024028663
O         0.37799810686524    5.09426679513101    4.87810232855874
N         3.58439533204089    3.36494495570075    3.69928174292451
N         2.89258911840513    0.91855718777419    4.13633427544581
C         4.17294485158479    4.68533622450303    3.67542457366428
C         4.24275071571132    5.26634348639629    5.09621833614111
H         3.24276559955863    5.31511435126708    5.51994749530281
H         4.67272761060292    6.26522670231996    5.08739313645920
H         4.85480484372590    4.62322675157212    5.72313075525574
C         5.59436040050672    4.63584081557676    3.09857465473177
H         5.58258068914955    4.15902909759420    2.12283143824823
H         6.24725917261429    4.06553428423463    3.75143141243393
H         5.99446413905873    5.64177883013069    2.99511120249955
C         3.33827897907103    5.62141255510566    2.79130960083691
H         2.30283882416032    5.61189579997802    3.11534009795375
H         3.38257752204716    5.29540300578580    1.75570045895352
H         3.71614771285892    6.63938810396992    2.85065033317668
C         5.62069394203405    1.65238136953693    5.38146611361677
H         5.23775100791168    2.04718267924466    6.31743973079896
H         6.53924328859882    2.19144429633593    5.16899144932039
H         5.89412437751704    0.61229195199825    5.53976469347600
C         5.48830342844009    1.18820086249750    2.47952298419253
H         5.05413223400475    1.31353209958630    1.49307465244824
H         5.68839828028997    0.12845400616880    2.61932276738107
H         6.44950048122132    1.69199122862789    2.46879848342431
C         2.94008411836841    0.06300120284175    5.31168698721394
H         3.58490057678597    0.52804815028989    6.05106703966264
H         3.38055904218661   -0.91454757141981    5.05725113925207
C         1.56386144028611   -0.13608494847809    5.95082070461073
H         1.66174800018896   -0.60321227165208    6.93412562129515
H         0.93330397154268   -0.77600143478108    5.32705520178790
C         1.13000227511751    2.04123632193656    7.80473671141180
H         0.83821831819869    1.22451925283456    8.47608050939321
C         2.62914128168539    2.29835619731222    7.93130661159459
H         2.84646533194429    2.82998309272861    8.85679846782877
H         2.96644936690605    2.91058361786145    7.09262158714815
H         3.19163857798632    1.36753791465371    7.94340089438816
C         0.36411124897561    3.30920319976292    8.16853331495057
H         0.70542253622475    3.68985763120085    9.13053182748612
H        -0.70384253939346    3.12656944485101    8.24372823289221
H         0.53414653223438    4.07710425692832    7.41716333327770
C        -1.04002818523879    1.02170972503424    6.06358084415363
H        -1.11348572421768    0.38018018097913    5.17440463079687
C        -1.46902860776643    0.20665776415999    7.27895184660342
H        -2.47695353206775   -0.17681993202478    7.12427637287019
H        -1.47988912015139    0.81803529265373    8.17754689596461
H        -0.80620561075130   -0.64077434245178    7.44137886115216
C        -1.96120964844590    2.21670330761304    5.83250991259096
H        -2.93836206664563    1.88053856664128    5.48836486520246
H        -1.53013351744622    2.87846887055465    5.08262297747126
H        -2.10873445171439    2.78951218166358    6.74319711427690
C         2.54120572052099    0.12148118603361    2.97150845120438
H         1.70766943072078   -0.54788968046854    3.22168924822522
H         3.38849096238490   -0.51960088517975    2.68213223837126
C         2.13434358929929    0.99004605866346    1.79266307211260
H         1.97848601753376    0.38792058670343    0.89589440317252
H         2.91824550194977    1.72153893366066    1.60897588149037
C         0.32169393729810    3.00855063457160    0.75262858979278
H        -0.36160030072462    2.46708054260510    0.08942349353557
C         1.59388786482018    3.34408464133834   -0.01589872103625
H         1.37274868311909    4.08518906805105   -0.78356642589487
H         2.01155711789453    2.46751662121735   -0.50559178691778
H         2.33685574255692    3.76251213954346    0.65841148269125
C        -0.35428401537375    4.29613263035596    1.21999597978690
H        -0.62624311291993    4.92058185418178    0.36995244707507
H         0.32784486314600    4.85381651888139    1.85716929517351
H        -1.25379847806844    4.08299502944310    1.79325376397465
C        -0.70410444881095    0.64510278210560    2.10929309301454
H        -0.59312112144014    0.02896283319467    3.01129032614314
C        -0.60939689477960   -0.27167672705422    0.89305623984952
H        -1.51113538661840   -0.88029840638727    0.82897801178056
H         0.23985206610668   -0.94690181750658    0.96405566622078
H        -0.52503676588625    0.29721768857884   -0.03032190795174
C        -2.07464961251113    1.31467730617612    2.17079987483736
H        -2.85566444392385    0.57211647358713    2.33193614060441
H        -2.29274557431379    1.83424511463502    1.24082047097005
H        -2.10946220132722    2.03382528560563    2.98568175754659
C         0.97730470579508    4.13014037553536    4.65584437117830

