49
CSD_code = MOXVOK | q = 0 | S = 0 | Stoichiometry = C22H23AsCl2Ru | MND = 9
Ru        9.57542090397210    2.39270479846313    9.07423357546663
As       11.82588538923883    2.98156947263173    8.73392882464755
Cl        9.40875044037680    3.97477969488906    7.30886979118710
Cl        9.73788821331688    4.20228353584572   10.59079810605096
C         8.41530831149377    0.82712896681376    7.91974406937799
C         7.50186837201817    1.48922303487424    8.79446059747224
C         7.76226574929600    1.57454365200557   10.16176357543977
C         8.94363814133964    1.00323852027307   10.72206674869650
C         9.82740465475680    0.32235508892514    9.86683198130860
C         9.56242586889128    0.22934982492129    8.47056408919729
C         8.10216504974691    0.73583100104880    6.45599739550576
C         9.19380797609035    1.10422342613740   12.19606073182428
C        12.29956581792191    4.84751143321921    8.88125752842707
C        13.31848996093239    5.32098435196988    9.58334443698901
C        13.00883634064560    2.10999314258668   10.01025207242998
C        12.83373258302144    2.44174264324833   11.35269242050541
C        13.55545021076256    1.78674120033060   12.33437286563515
C        14.44858530040772    0.78539494296628   11.98458321315329
C        14.61238768570735    0.43628428625704   10.65433452684646
C        13.89064420281182    1.09050697810185    9.66888522567565
C        12.66333402927857    2.58463462324939    7.02001744708353
C        11.93518436540735    2.00671321196109    5.99064502902944
C        12.53878649116857    1.74324760651935    4.77195913891518
C        13.87377554212677    2.05545992370325    4.57967024992070
C        14.60617144687386    2.63873545779674    5.60246574477416
C        14.00320968361037    2.90579210920572    6.81844552740348
H         6.58392649433843    1.89873710468798    8.38577780641792
H         7.04956336776641    2.05709256382924   10.82277673202144
H        10.69539318688447   -0.18542274365064   10.27992750858180
H        10.22602019212215   -0.35721108581331    7.84159879935505
H        12.11527548410108    3.21697219329731   11.60562571117976
H        13.41982235427852    2.05074545299549   13.37328936937479
H        15.01208514443118    0.27196063779974   12.74991421828120
H        15.30162332041291   -0.35066609876304   10.38354332798624
H        14.01192391314866    0.81552469782231    8.62600438160329
H        10.88369683767190    1.79121531628874    6.14785361058840
H        11.96685329827814    1.29952159586152    3.96971773071738
H        14.34449092119852    1.85196571580716    3.62905741468182
H        15.64593544243459    2.88905915003028    5.44795526286469
H        14.56118970048499    3.36798780296082    7.62959311436471
H         9.24358671941916    2.15489092996870   12.48728109136745
H         8.38129449849441    0.63605152329259   12.75266106612137
H        10.13372800760246    0.62576481512102   12.46531161307279
H         8.13462181859259    1.73228982182851    6.00931923730483
H         8.81754579309029    0.09804639893143    5.93977475947522
H         7.09939586689747    0.33509486625498    6.30704509178660
H        11.63173001690861    5.50810486639333    8.33259367782760
H        13.53066192191171    6.37869805162839    9.63769224863501
H        13.96755296830747    4.66640349546825   10.15164131343334

