58
CSD_code = MOXWIF | q = 0 | S = 0 | Stoichiometry = C21H33AsCl2Ru | MND = 9
Ru        2.35116671712824    3.58083733956705    5.54797591540740
As        2.88440080756964    3.60567717416135    3.22607699285740
Cl        0.80984381221567    1.89878440814313    4.96092445642979
Cl        0.71828918902814    5.07890576456244    4.72805785005165
C         2.02136867128107    3.18570581591076    7.77748084395032
C         2.25520492096114    4.55566754715868    7.60377706498120
C         3.41206634070738    5.02079191440717    6.92840871418362
C         4.35632841189055    4.09849643821804    6.44292780157084
C         4.14745174177112    2.70606288354364    6.62440606961130
C         2.97244564012224    2.26412051913564    7.24744021796014
C         0.81454666841477    2.66999114490160    8.50027158931802
C         1.38787637225112    3.28844510161612    2.04289924456477
C         1.27161705704970    3.72934614271824    0.79834347628493
C         3.73687076994601    5.20890986617246    2.41115629230514
C         5.09126005706568    5.49463191805481    3.05007537501989
C         5.74139356156982    6.71608875471775    2.40345819876036
C         4.83058480165509    7.93343980217465    2.53583781825952
C         3.46701658654901    7.65016660497551    1.91172430153976
C         2.83021005566977    6.42483514233760    2.56129889738658
C         4.13640613447428    2.13408468372105    2.71047626557795
C         4.45742489901228    2.11196674672800    1.21976518106150
C         5.35033593251448    0.91915712260345    0.87791151789794
C         4.68698127849227   -0.38777277911206    1.29962892053399
C         4.38913176871033   -0.36820823752163    2.79537387952295
C         3.49284572756848    0.81746197037208    3.13572730984495
H         1.55657598478933    5.27708666512746    8.01479347322982
H         3.59901319528084    6.08611343181499    6.85482233938096
H         5.29402954930743    4.44541621851445    6.02036155450076
H         4.91111162448052    1.99669207492761    6.32429274045965
H         2.81174789796484    1.20156918784125    7.40398260696403
H         3.88168282030031    4.99499152690264    1.34276003265085
H         4.93652397928588    5.69683759492601    4.11472500911632
H         5.74889907941477    4.62246207516073    2.95207700347307
H         6.70630991914974    6.91846388806076    2.87425317858492
H         5.92208429992953    6.51128391724671    1.34553611671952
H         4.69887436731246    8.17290513034417    3.59334138664831
H         5.29272726370675    8.79671560926005    2.05272922521084
H         2.81431697265730    8.51551392297240    2.03736296741722
H         3.58900722457230    7.47405060363884    0.84003568053547
H         1.85257770721040    6.21533587792659    2.11529939659477
H         2.66572744794049    6.61615020937239    3.62609840945233
H         5.06394706152552    2.28093086883063    3.28119051260828
H         3.51989061092022    2.03838837053202    0.65770807245812
H         4.96182579492493    3.03890325722409    0.92716134087031
H         5.55166533409394    0.90707631752723   -0.19528560114118
H         6.30666151423512    1.02306055089901    1.39652590592443
H         3.75322962161064   -0.51321131345268    0.74801313764765
H         5.33824682723451   -1.22999597243345    1.05728236560903
H         3.90026689945190   -1.29784184552479    3.09164587641088
H         5.32834571633290   -0.29021663493435    3.34954898373752
H         3.28356427834471    0.84048561348906    4.21164122345881
H         2.53194804138049    0.71224976312735    2.61944632432667
H         0.19212264073341    3.48827834765781    8.85576010133713
H         1.11405634702539    2.05369436890778    9.34880527545723
H         0.21856925055548    2.04985946730541    7.82762110828332
H         0.58609239888428    2.71575462595101    2.50000871139773
H         0.39195364253208    3.52555857912310    0.20507053197439
H         2.04183676329173    4.31904391247196    0.31896081381569

