59
CSD_code = MOXWED | q = -1 | S = 0 | Stoichiometry = C26H14CoN10O4S4(1-) | MND = 6
C         7.80635424743598    3.09941605981178   12.85486371897968
C         8.99189608249254    2.73567546479526   13.47726612951148
H         9.11958408445942    2.94081315377001   14.52857751673377
C         9.97229900146348    2.11790531288531   12.71607572462059
H        10.90700578049650    1.82250108255314   13.17084692328547
C         9.74765832111374    1.88075397000842   11.36862230542719
H        10.47921245436619    1.40335525618230   10.73572474271218
C         8.53396895715755    2.27480566488703   10.82380668208258
C         8.10402905982134    2.10724783904094    9.41833465713357
C         6.34495797623606    2.50469093233782    7.98659221671905
C         4.92715648882159    2.68921450243396    6.32426647390615
H         3.97546796014473    2.99917927641297    5.92787408660219
C         5.92469080331685    2.07959998725482    5.64091470250983
H         5.94739647133511    1.80189014185876    4.60673809009742
C         6.64773618215254    3.76561308994785   13.48888022588770
C         4.54138919236253    4.58221370019642   13.04369590974243
C         2.53680069031082    5.47064184193650   13.04541575345450
H         1.62795020070655    5.74582587439066   12.53826084515495
C         2.82277779719334    5.67354865403482   14.35335993884891
H         2.21148924092466    6.13357508502845   15.10291882677573
C         4.42525981234774    5.03562212082694    9.54048060148759
C         3.24145027653624    5.45142479229835    8.94813793301653
H         3.18454338796801    6.44074841640780    8.52193715981996
C         2.17057381593198    4.57099966579545    8.92845873786925
H         1.23455574946194    4.86465167068762    8.47526046211999
C         2.30635121708730    3.31198087439134    9.49302671729206
H         1.50261511646053    2.59255750279974    9.50202346692813
C         3.52476365948758    2.97423458883191   10.06450138590543
C         3.86833177596056    1.68771189154212   10.70880974388631
C         5.58648988284702    0.57361328896043   11.76185061127220
C         6.93489667072132   -0.81859213737803   12.78720471704722
H         7.89164740609687   -1.05736519126708   13.21912346784047
C         5.85347564465811   -1.63118100162461   12.72490678036734
H         5.75584438981282   -2.63508150141261   13.08517700602569
C         5.67148003459649    5.82293407851166    9.66501469970465
C         7.82042583469930    5.72303291863550   10.48639658326523
C         9.69504362722953    7.25305318790109   10.55257557677114
H        10.38244497987042    8.07057433859812   10.47316938604281
C         9.89576245446852    6.03965555450554   11.11916172956454
H        10.79961520239344    5.69465905356328   11.59135371597005
N         5.14434115684314    1.70007143451849   11.15793165480613
N         4.53659368762276    3.82881056609154   10.07476653318191
N         6.62918764835588    5.11009507202276   10.30118020971134
N         8.84315115175118    5.19080383071718   11.07744331853508
N         6.77684344746617    0.41161404661223   12.24699324756294
N         6.85890465417082    2.60284357601448    9.23370531569063
N         7.60928832718032    2.86450516362843   11.56640642601049
N         5.65982061336198    3.97319762169142   12.58835214322873
N         3.50261996278884    4.86013289652911   12.32101384346450
N         5.17050624226239    2.92314692438314    7.63435291070386
O         8.79185386224515    1.58485599512960    8.54333006161696
O         6.59894080511720    4.08494216971671   14.67517764554969
O         5.80841567677537    6.97041768651253    9.24539384958078
O         3.09271605724078    0.73967142765376   10.81488793176437
S         4.53433822778602   -0.82766871550706   11.94281709119149
S         4.40107147325264    5.07020674930747   14.73058526539102
S         7.27129907023182    1.76605324112339    6.68282029836203
S         8.08904761961302    7.36794470981618    9.91615128851730
Co        6.07306838498992    3.34685460168647   10.82038501274636

