67
CSD_code = MOXWUR | q = 0 | S = 0 | Stoichiometry = C24H39AsCl2Ru | MND = 9
Ru        0.95260845066187    1.32101737567387    6.42031081370368
As        1.79000423285705    0.05409244253591    4.57193234612178
Cl       -0.27389907957540   -0.68302178687005    6.66024271722071
Cl       -0.75876327633851    2.13618129872190    5.02495936028328
C         2.19229941604492    0.93795216454497    8.25424208724290
C         0.95187139508985    1.48786972395746    8.66925538288359
C         0.50490857806154    2.71882229051492    8.17863721968241
C         1.28866517548658    3.46404560938955    7.25231608920773
C         2.52227413568579    2.93388893191155    6.84012792691324
C         2.95250903973492    1.66456680042244    7.31467933846148
C         2.67714223395117   -0.35366335864844    8.84131543831453
C         0.86113521970086    4.86710869453950    6.88857915307965
C         1.66483502774648    5.84872929488156    7.75085500200029
C         1.01604378140431    5.18897207102751    5.40355643417983
C         2.93556740088747   -1.30936926780291    5.32396946059698
C         4.25484630295281   -1.27538820147403    5.45062378088855
C         0.63897882701691   -1.18134758997657    3.51033941229686
C        -0.47153769262778   -0.46276430916896    2.75430493033267
C        -1.43564513589887   -1.48998103955373    2.16500158605429
C        -0.69594006484333   -2.46033166307416    1.24744018012552
C         0.43886778754611   -3.15221491928042    1.99930431217069
C         1.40264044804990   -2.11151845587916    2.56974008258880
C         3.01685091739081    1.14622879834551    3.43832045738433
C         2.24796180823544    2.35534058337460    2.91441772123264
C         3.19785284913765    3.33365559224230    2.22921340825156
C         3.95894165515029    2.63885394559708    1.10191409271926
C         4.70611157237970    1.41460911940363    1.62675392297612
C         3.72438545723591    0.44490277967608    2.28549304834783
H         0.36286618617922    0.95653660717342    9.41049676738929
H        -0.42379132933703    3.14234622012812    8.54639619166230
H         3.18170170287975    3.51565637402687    6.20645215168284
H         3.93713600829466    1.29742136071784    7.03281670529379
H        -0.19991070579675    4.97279315879312    7.14122267122589
H         2.72600106730563    5.78420928745800    7.51664640679692
H         1.33182852396555    6.86637448901284    7.56215405367106
H         1.53220334834178    5.63281920694771    8.80968513393861
H         2.05682407836164    5.14834094585564    5.08961962334830
H         0.43397147108627    4.48401482645179    4.81362927731351
H         0.64264110630285    6.19106326520020    5.20672938052496
H         0.17857778783412   -1.78739877177310    4.30494723528265
H        -1.00507244696848    0.20416480027663    3.43678650695275
H        -0.04093476305727    0.14184725858990    1.94863213904884
H        -1.90325579350911   -2.04628451918145    2.97967114679779
H        -2.22546146881020   -0.98058796238763    1.61000204025380
H        -1.39043215053235   -3.20717313417942    0.85743357700789
H        -0.28372473302714   -1.91194869465482    0.39666540771056
H         0.02438203076713   -3.74892149719481    2.81397629308119
H         0.97651899014598   -3.82482204615813    1.32672135673272
H         1.82408580354179   -1.54198233851940    1.73864136130389
H         2.22634477383194   -2.60185359691596    3.10270923130798
H         3.77794684930966    1.50246257227994    4.15079953994052
H         1.48926248821996    2.01818199680423    2.20196205150024
H         1.72096718341739    2.84227810771089    3.74253810035616
H         2.63579464953769    4.18055988964520    1.83143982146984
H         3.91375528240891    3.72034475656407    2.95966435048351
H         3.25180724163992    2.32354072334529    0.33177337734461
H         4.66349119859242    3.33581759126735    0.64347123148924
H         5.22593396379923    0.91578632452933    0.80610496161568
H         5.45708850190958    1.72939216942392    2.35548574074502
H         4.24242884715179   -0.45259345429607    2.63868811118415
H         2.98668315849374    0.14414284130160    1.53893039577029
H         2.37291229822620   -2.14207419354525    5.74239320921784
H         4.80663551832569   -2.06740174406931    5.93721089417216
H         4.84626981122634   -0.45785115723122    5.06270127533732
H         2.83772100591855   -0.24343243404622    9.91460463739580
H         3.60842013183756   -0.66905856195866    8.37449768741606
H         1.92956591906089   -1.13334759241830    8.68965425098866

