67
CSD_code = MOXXAY | q = 0 | S = 0 | Stoichiometry = C24H39AsCl2Ru | MND = 9
Ru       -0.37516577903406    1.63071827837933    3.47997136874272
As        0.33465876231856    1.91726421443453    5.75130154285712
Cl       -1.53030114669276    3.64726149139573    3.87615146182184
Cl       -2.17562938584325    0.54035587342657    4.56788564363960
C         1.54752142252481    1.76941135233928    2.28947916134668
C         0.56386978282084    2.53073780878577    1.62015451927215
C        -0.65977769456218    1.90194911114906    1.25111073988174
C        -0.93513369668585    0.56212336717613    1.54452650178512
C         0.05620103575873   -0.21171000687238    2.23166149046357
C         1.27623935017600    0.39648617562818    2.57071520245843
C         2.90681816384107    2.33901040598328    2.58271405230300
C         0.82458872266875    3.95117818607397    1.21116084153600
C        -2.23188776317121   -0.06316265947706    1.13235791130439
C        -0.18350821611849   -1.66385475517891    2.51734534945988
C        -1.11268925403744    2.44778208372227    6.91586381849217
C        -1.38940714479798    1.95654752672515    8.11450995452693
C         1.11730792710267    0.35148009143287    6.70212890318495
C         2.53931777110457    0.06369673197566    6.22983261632539
C         3.09362655144994   -1.19052393564568    6.90311149263735
C         2.19198364428810   -2.39042032853624    6.62941968061970
C         0.77504058158047   -2.10847191584154    7.11961843800170
C         0.22188472367829   -0.85610883849819    6.44792358259456
C         1.67083534222200    3.35190751041429    6.14676639774994
C         1.91082637950179    3.51361755590495    7.64481817531214
C         2.90299062921240    4.64527829117874    7.91060238835738
C         2.39818264503346    5.95286198616009    7.30883153067941
C         2.17033659805801    5.79088130559632    5.80926729881122
C         1.17576864740860    4.66415993086616    5.54982823896111
H        -1.39193660717449    2.48206340711440    0.69735277934934
H         2.07154900072212   -0.21627299062230    2.98601070332771
H         1.13743456715661    0.57417418377440    7.77727459064340
H         2.52777791535270   -0.08581395699615    5.14594469677934
H         3.19002221437091    0.91670016469944    6.44987095951915
H         4.10470674791978   -1.39105494610956    6.54025130056989
H         3.15302784489302   -1.02316469311688    7.98107256225759
H         2.17045285874361   -2.59123740741174    5.55547241434918
H         2.59264425787183   -3.27675135360613    7.12562922789441
H         0.12818074662403   -2.96053683674862    6.90312499084762
H         0.79037701766007   -1.96553903138921    8.20279313933412
H        -0.79116806766198   -0.64318035415632    6.80377163175731
H         0.15483355275550   -1.01821726189931    5.36629172290546
H         2.61147969202276    3.06987022550911    5.65672351119428
H         0.95716187019475    3.74166268035812    8.13346725691865
H         2.29514685100754    2.58133628586289    8.07201567989912
H         3.04971234152419    4.76119572057387    8.98649619873571
H         3.86900237090412    4.39171744913075    7.46657439899503
H         1.45710948777689    6.23035180206935    7.78760098645388
H         3.11983402777081    6.75093522400327    7.49514065627438
H         1.79216627123491    6.72340445615200    5.38640130184078
H         3.12246883445385    5.56173466827489    5.32243431045793
H         1.00916229158875    4.53790653440949    4.47503125170672
H         0.20871249650768    4.91656339418268    5.99684748241077
H         2.83172857720065    3.33987098232069    3.00473502271880
H         3.48612598090341    2.40666187264163    1.65915351820648
H         3.44959810035634    1.70433075458275    3.28185229663888
H         0.00800343787597    4.32828518352255    0.60013209429745
H         0.90753442816779    4.59817594268257    2.08517401922966
H         1.75331982788991    4.02109550398891    0.64383160420314
H        -2.78762700973443   -0.37668277407620    2.01855194391524
H        -2.05669239439627   -0.94245555744904    0.51212018904522
H        -2.84352959909917    0.64559882033094    0.57821244570899
H        -1.06556201665909   -1.77844946612944    3.14915908967743
H         0.67121269832365   -2.10693943269870    3.02555118639568
H        -0.35897198901855   -2.21109886275186    1.59054296298439
H        -1.76559232758922    3.19235614187322    6.46758088354612
H        -2.24719534339262    2.29195849126574    8.67900339506669
H        -0.78410955484205    1.19308819715678    8.58344729081311

