60
CSD_code = MOYDIN | q = 0 | S = 0 | Stoichiometry = C25H24F3N3O3PtS | MND = 4
Pt        1.20427467067681    7.23948567392234    1.17989743549668
S         1.51193846328559    4.82740716633275    2.15243425020197
O         0.27380458314828    5.63219542064197    2.22977311428748
O         2.67199367157148    5.49073250223079    2.68356944926105
O         1.66729560323005    4.10086100731155    0.92753283730014
N         1.72826229682647    8.23510016247403    2.79454033706842
N         2.14361944101178    8.66603337346542    0.24536600294042
N         0.88824174128435    6.54592842051790   -0.63423213190570
C         1.53305852307000    7.91295155161137    4.05133506426878
C         2.03398443225618    8.67623342441928    5.12137454352430
C         2.72871984571788    9.82261507088542    4.82149883205334
C         2.94649519484316   10.20152667867093    3.47949290852197
C         3.62859208084773   11.37094718743312    3.09314092118610
C         3.76816514259948   11.66525280170396    1.76063885441913
C         3.29270768020930   10.81897638628061    0.75714039232196
C         2.65253899744960    9.62791983997379    1.07718692307988
C         2.43965889006213    9.34895477043666    2.47118210481316
C         0.20946711067056    5.48678339684986   -1.00533396434108
C         0.26185516584555    4.95906359161289   -2.30965005441315
C         1.02994540924605    5.61799930286840   -3.23691255610530
C         1.73625081585167    6.78749719762502   -2.87961703515038
C         2.55368411734240    7.50913237126928   -3.77028028752371
C         3.25887887668347    8.59427741764397   -3.31592940293598
C         3.17665900890018    9.03615459512248   -1.99431571762389
C         2.35792695529362    8.38704244432472   -1.07821700793415
C         1.64630904933284    7.22595536090338   -1.53893657506979
C         1.81858885512288    8.21420811181364    6.53807815718373
C         2.57593187624668    6.90448147071504    6.77242548715608
C         0.32982797638978    8.04271586596399    6.84506729424688
C        -0.44789476377891    3.65500325847587   -2.55954626633946
C         0.45118760192362    2.53120401108928   -2.02798844337003
C        -0.80817217192947    3.42087673594480   -4.02426247726968
C         1.09191368594092    3.53823580122767    3.45931519687473
F         0.88104656415719    4.16515696509434    4.62570633947760
F         2.05732812453006    2.63927395294482    3.65559022201258
F        -0.02621468816078    2.87589743614141    3.15219118035917
H         0.96224321908917    7.01245655971187    4.23019900729370
H         3.12100028371722   10.44996880089025    5.60972978372339
H         4.02034187761723   12.02888848273533    3.85267309323192
H         4.26512909361408   12.57797470132782    1.46662752213786
H         3.41073402709180   11.12403091566581   -0.26751163106778
H        -0.39232084802761    5.00455880558071   -0.24674111217120
H         1.11969048801186    5.25535452903947   -4.24932117477440
H         2.63029883414538    7.18579179474218   -4.79641498966464
H         3.90594386363369    9.13044630487334   -3.99442295925287
H         3.78626849438036    9.87038052814917   -1.69671512324934
H         2.22515748056448    8.97791230485762    7.21076287848027
H         2.20164919905457    6.12056556060510    6.11953386928068
H         2.45493659742689    6.58364154391668    7.80437642039113
H         3.63655474532735    7.03777365075808    6.57216122553954
H        -0.21453979096177    8.95849714601130    6.62457784434218
H         0.19463542895662    7.80574705929940    7.89763929694804
H        -0.09648484838623    7.23445297945447    6.25762952159987
H        -1.37193766590673    3.66095978964113   -1.97111027920392
H        -0.07491566779458    1.58025931577713   -2.05861621960561
H         0.75487467375328    2.73799695665902   -1.00386903290334
H         1.34857666028970    2.45207896988882   -2.63803810643347
H         0.08355993106833    3.26840095960464   -4.62720868805814
H        -1.36474273549908    4.26525222823859   -4.42505302085002
H        -1.42542416799997    2.53002938666645   -4.11124405226385

