63
CSD_code = MOYDOT | q = 0 | S = 0 | Stoichiometry = C30H29N3Pt | MND = 4
Pt        3.81280509260821    4.72422994385543    4.59455811086232
N         5.75313691609364    4.84173740630063    4.91957253575756
N         3.71274510212416    5.69030884159193    6.36573053716041
N         1.84874793912245    4.85243371243170    4.69282150826454
C         6.75152046555077    4.35789399255575    4.20164622844317
C         8.10376679230447    4.56645185104947    4.51218750846552
C         8.39637469742804    5.32658433746449    5.61809443398280
C         7.36045399606972    5.85585610581985    6.41370348171763
C         7.60258967039589    6.66243928989425    7.53975977260874
C         6.54604853479524    7.18856987944239    8.24180644820459
C         5.22705889496713    6.90956963145198    7.90079488320923
C         4.92088336108894    6.07450959138294    6.82641572254311
C         6.02218212834069    5.57450611958751    6.03726976346231
C         0.94161924309562    4.48096724859416    3.80846803657186
C        -0.44297113600706    4.59697070096238    4.01647323302142
C        -0.86772919060940    5.11265738680246    5.21507427237006
C         0.07008058041631    5.51316831888959    6.18992552869997
C        -0.30900529736906    6.01051847383388    7.44906101397306
C         0.65473479135148    6.34134052011929    8.37013342500852
C         2.01111149941355    6.25027761915502    8.07772975657802
C         2.45128756792269    5.81760259990284    6.82693245606448
C         1.44817700163284    5.38843907771842    5.88134718800296
C         9.17155537877106    3.99134277296782    3.61642199121974
C         9.91173584134648    5.11933960201075    2.89337584267266
C        10.14695313124042    3.11823916513666    4.40693290272882
C        -1.37224885753796    4.18476382553021    2.90261814536457
C        -1.58819668860419    5.38207475603847    1.97101125045743
C        -2.70988639255545    3.64743878898346    3.40690485589084
C         3.91105923091366    3.74800312742441    2.83491645381060
C         4.43781032587018    4.34061463339599    1.68183083602997
C         4.49863131870305    3.66414139293626    0.47430851977564
C         4.04262995293884    2.36019804136138    0.38440980560586
C         3.52078580675853    1.74400683372430    1.50881514719283
C         3.45213125243646    2.43169222280875    2.70931024384295
H         6.48194102480813    3.78208358023236    3.32540806635002
H         9.41791146151187    5.53986393672637    5.89664527589001
H         8.62154098206181    6.87351141948169    7.82537245863900
H         6.73574887558897    7.83557182791081    9.08653079476131
H         4.43888030279643    7.37567186221860    8.46751910982596
H         1.31222721901502    4.05637965319573    2.88409261621755
H        -1.91744051710290    5.21640095227963    5.44330974344967
H        -1.35829986040318    6.10566553679893    7.68226985558676
H         0.35958988541135    6.68899793225810    9.35002637884730
H         2.72206087392263    6.49464279308054    8.84891806935238
H         8.68011761501844    3.36512916388876    2.86416772545344
H        10.41588006837446    5.76747392219259    3.60634034011811
H         9.21344864685908    5.72108507684224    2.31616374290815
H        10.65542867402367    4.70697040549244    2.21558278714406
H        10.69596885056097    3.70916896650763    5.13564073918469
H        10.86409422814332    2.65594187918326    3.73279105313583
H         9.61111278529384    2.33174087259153    4.93344706716737
H        -0.87433351845695    3.39332787425697    2.33140108183219
H        -2.22788778059670    5.10070783682831    1.13801384499492
H        -0.63779335812901    5.73367068041360    1.57634574301091
H        -2.06097312845097    6.19988038382034    2.51101454580450
H        -2.55477084559001    2.88304978638499    4.16481353444211
H        -3.26467103223197    3.20658891757761    2.58215144380143
H        -3.31734744558383    4.44340056635700    3.83050839385746
H         4.81050571822812    5.36020157364726    1.72919626745881
H         4.90628185471102    4.15326630250856   -0.40051005804031
H         4.09371111561546    1.82779323479345   -0.55516556727492
H         3.16322986980204    0.72463607163494    1.44762291805854
H         3.02975848377807    1.93058917976665    3.57632018846533

