81
CSD_code = MOYDOV | q = 0 | S = 0 | Stoichiometry = C40H34As2BrNO2Pd | MND = 4
Pd        1.01660602981845    3.83025036693594   10.31234759371574
Br        1.34340348525327    4.71790109373011   12.49026762141868
As        3.28166490636051    4.08896699115081    9.76081363918140
As       -1.20563231317566    3.45925600476124   10.91472964845667
O         1.53834069449878    4.77108150384107    7.36354458993442
O        -0.20296068358369    1.11514926748623    9.29367238241953
C         5.73323493676052    2.06135326527882   12.58061986558549
H         6.72496791812895    2.15141494669537   12.99990977844524
C        -2.82712527444484    7.88054680794757   11.12889104739602
H        -3.19086924340411    8.89730728016133   11.15099140708266
C        -3.40764819973431    3.21404488469812    7.39848055106848
H        -3.37735330394976    3.72864623242758    6.44814734875978
C        -3.58590050085092    6.86374987456506   11.68616144264655
H        -4.54230293162407    7.08775173191014   12.13644546112182
C        -1.99429683074697    1.05232667669541   14.87657866897613
H        -2.15090007833522    0.48451454597585   15.78216170944577
C         4.37584339891331    8.04977450345796   10.51547872081596
H         3.87707569458524    8.93355217656020   10.88498421239600
C         6.35778011144344    6.96823970707112    9.69653156964779
H         7.40338397829470    7.01161892690850    9.42653042375914
C        -3.12122425728844    5.56071989327837   11.66421712471384
H        -3.71399449103769    4.75400993190822   12.08629146286706
C        -1.60789380185475    7.59621184082240   10.53667999977970
H        -1.02363381386274    8.38799935405352   10.09064067009008
C         5.71686894355358    8.10053561482686   10.17470093442466
H         6.26609147137286    9.02489991944521   10.27745060486911
C         3.61931610815139    0.93171969009895   12.46874021110963
H         2.95926431352065    0.14274533662766   12.79948399918059
C         4.31373200624168    5.72252570281591    9.91268277650585
C         4.79141588479017    3.33777111659278    5.89771277124335
H         5.14560784952375    3.91868096202051    5.05838272335005
C         4.89689128033664    1.03868548657154   12.99387043449309
H         5.23599513820745    0.32904443690760   13.73406477287825
C         4.21794209750243    1.21765948924696    6.86260387724477
H         4.12746326467192    0.14359218316575    6.77992438671572
C        -4.38409267316208    1.56389887171316    8.84019779320744
H        -5.11634222374832    0.78828311045847    9.01281263949545
C        -1.72326687744796    0.39505494934451   13.68685995157652
H        -1.66066927799957   -0.68374136284261   13.66671269575719
C        -4.34086122350202    2.21303068225171    7.61828969231832
H        -5.03506023921083    1.94159741696167    6.83643924432291
C        -2.04309308622138    2.43603112862483   14.91130162218251
H        -2.22682774146672    2.94755953038849   15.84470466927482
C         5.65957358675942    5.78157306391234    9.56267017478173
H         6.15274600169306    4.89445700288901    9.17491410776658
C         0.09440261116883    1.50842535898020    6.87293289172196
H         0.67294891807525    0.60935372141881    6.65934649204690
H        -0.94293037104097    1.31687964741765    6.59573864344097
C         3.97299076653142    3.23442331499088    8.15724388857892
C         4.68690605497747    1.96008027531120    5.79126806057013
H         4.96321470108878    1.46585673544793    4.87115228982851
C         5.30016775278681    2.97728458488291   11.63649964436295
H         5.94810337561923    3.78943936267449   11.32778122514728
C         4.02509875314805    2.87413479975150   11.09943484164169
C        -2.51531747034427    3.55104034874570    8.39847720743161
H        -1.77987793830973    4.33847118296114    8.23451684628589
C         3.85851332662028    1.85288408262756    8.03831754665738
H         3.48084909581312    1.27148794744554    8.87627881676270
N         0.70519371377920    3.03346489751010    8.53164415790175
C        -3.48909783834382    1.90102752107476    9.84259147771330
H        -3.52086336202406    1.39174769425982   10.79932076410885
C        -1.60846190286669    2.51259251286361   12.55131316026793
C        -1.52047176888134    1.12163367557800   12.52698790407783
H        -1.27477560050838    0.62634289255600   11.59126350757352
C         0.67527355136204    2.76098092514716    6.21257131432945
H        -0.03839249388472    3.27096988002811    5.56522328046293
H         1.57626583430629    2.56168323859170    5.63111888763578
C         4.43055514589464    3.97390978889317    7.07231986594178
H         4.47916641055819    5.05464765010280    7.15082130822392
C         1.03401030502637    3.66166296650096    7.38834590024579
C        -2.54385332766767    2.89220365451398    9.62398308318157
C        -1.84409127870008    3.16957174439178   13.75397192671448
H        -1.84706648498583    4.25388776617140   13.78311840955410
C         3.67423874892596    6.86376057872601   10.38253002667967
H         2.62125950110451    6.81224650461672   10.65061412916075
C         3.18436776037771    1.84673741918423   11.52762477080268
H         2.15713162510135    1.75983078850922   11.13006642922303
C        -1.88504783585839    5.27186302426836   11.09880270798025
C        -1.14004904527474    6.29418537324428   10.51825814827629
H        -0.17111469138845    6.06825224737097   10.03966580508756
C         0.16269342430448    1.81584375273834    8.36351761792134

