65
CSD_code = MOYFAI | q = 0 | S = 0 | Stoichiometry = C31H25AsCl2N3O2Re | MND = 6
Re        3.08785555214329    0.67869027453668    3.08760723271933
Cl        2.38585713875797    2.70071603214162    2.21121517213165
Cl        5.24132497854230    1.43353414162288    3.14723307947992
O         2.76773627337347    0.91316527987361    4.70016929586735
As        4.01710753027315   -1.61612122145615    3.69473088011363
C         5.56630611572430   -2.35594803980502    2.77192258930338
C         5.98332887936793   -3.65033768069900    3.07639382933782
H         5.43968147789791   -4.22235321545698    3.82350767520258
C         7.08131378831632   -4.19220445273950    2.43313980831665
H         7.40434780025585   -5.19558582311105    2.66910310025735
C         7.76890694518024   -3.44522732254200    1.48840731496595
H         8.62656507664360   -3.87008326042623    0.98823426854832
C         7.36384778167581   -2.15493168272537    1.19326188712125
H         7.90886171867179   -1.57013508183527    0.46698380232362
C         6.26398235055026   -1.60717477793228    1.83434135224821
H         5.95893610018083   -0.58737390030908    1.63089074042074
C         4.51157128921237   -1.86298304011678    5.55781132570544
C         4.22134769270525   -3.01630008876938    6.27891824278708
H         3.67884178148043   -3.82809791629663    5.80279556970096
C         4.61104129631559   -3.11552964819156    7.60421180937702
H         4.38261056734177   -4.00949784714261    8.16621510466284
C         5.28696844584072   -2.06934013810710    8.21023553437643
H         5.58454766116687   -2.14996135211217    9.24526674508514
C         5.57414168880861   -0.91785756348199    7.49447732897271
H         6.09364693136691   -0.09997862332297    7.97086585852884
C         5.18705586986006   -0.81227307784940    6.17022266468925
H         5.38760964908938    0.08987218533210    5.60008535900342
C         2.63705625233778   -2.96079077269004    3.41087767878850
C         1.47361058051003   -2.81609795514231    4.16790375254709
H         1.45409141985302   -2.06575471527153    4.95568990764012
C         0.36532195448605   -3.59977793960030    3.90659263562149
H        -0.53473239033416   -3.47664682960312    4.49121409918658
C         0.40810430232525   -4.53349923767551    2.88180811805252
H        -0.45987708447679   -5.13942984284558    2.67026581980352
C         1.55769718227095   -4.68215418899322    2.12433764150543
H         1.58665019298115   -5.40438959051410    1.32210679204954
C         2.66823979007141   -3.89426585946644    2.38028995757206
H         3.56151068618642   -3.98881380813932    1.77103199022538
N         1.05694860750160   -0.04278110784207    2.67538929864445
N         0.64353864686086   -0.83696569297063    1.70123618086302
N        -0.62985231985571   -1.10966907248425    1.71263921390680
C        -0.04492753256754    0.25177569248210    3.38454004877306
C        -1.12282044185993   -0.44209799625987    2.76555750869023
C        -2.41942517030744   -0.34501035198608    3.28547162449700
H        -3.23659311259883   -0.86761545447325    2.81592513666575
C        -2.58813155131091    0.44090862066200    4.39469888218484
H        -3.57300411229803    0.54698152392783    4.82467515626612
C        -1.51646482607935    1.13058140216374    4.99828837075841
H        -1.72012312820264    1.74115009130280    5.86461386682778
C        -0.23749427133310    1.05289529229221    4.51259881917496
H         0.59945686977600    1.57530659722828    4.95199635721908
C         1.47427532007178   -1.36324101576536    0.71184604280930
C         2.79269060043648   -0.87912037957110    0.53490312873088
C         3.54594663039634   -1.44737423355458   -0.50825646392110
H         4.54936212705802   -1.08020675094961   -0.66160719809076
C         3.02586163338363   -2.43981002896760   -1.30336743484777
H         3.63592376709289   -2.86123807507542   -2.08902235443160
C         1.72536082078136   -2.91523728760366   -1.11967227354334
C         0.96079145121713   -2.35875526225173   -0.11366771335499
H        -0.05236982285205   -2.68357450553847    0.06324735102091
O         3.29683495575554    0.04742967499440    1.29666217470211
C         1.18333297366235   -3.99790065811892   -2.00049305223766
H         1.85231066523320   -4.85690314988022   -2.00289676384259
H         1.09736314528296   -3.64242802101460   -3.02636274680683
H         0.20149280770093   -4.31686126984171   -1.66220912491750

