65
CSD_code = MOYFOW | q = 0 | S = 0 | Stoichiometry = C31H25Br2N3O2PRe | MND = 6
Re       11.18035141947133    8.02262709710469    9.61106231692147
Br       12.72713350286085    6.40101477604094    8.49070585375011
Br       12.82764389062979    9.83721018060562    9.42012124749857
O        11.63092918148860    7.61887229798872   11.15106329484768
P         9.48346346470294    9.64580984242526   10.51312901443654
C         7.83684574486124    8.97744847285228   10.16166329815605
C         7.41345919444814    7.85593366503884   10.87634993759969
H         8.01774204554711    7.49172823448941   11.69807927959234
C         6.24140450498600    7.21369004830247   10.52630813066235
H         5.91943444492226    6.34375360432586   11.07956006589258
C         5.49080280765670    7.67671253072544    9.45560360773399
H         4.58290797726319    7.16513005915218    9.17518867288586
C         5.90675320894103    8.79009652585297    8.74447528844255
H         5.32354750764672    9.14946925329042    7.91007371090109
C         7.07806700671779    9.44047965590773    9.09131924539410
H         7.40839044002863   10.30460342654391    8.53070524568916
C         9.57405274990317    9.86045843530876   12.31019072002344
C         8.43937494328069    9.96119036415062   13.11045623594211
H         7.45387075465437    9.88711704967545   12.67026077683043
C         8.57802386205950   10.15492103822078   14.47291061962992
H         7.69751876393436   10.23029109646299   15.09414941327555
C         9.83929953844116   10.25263988208054   15.03881412089157
H         9.93970225442230   10.40098609438143   16.10359796344553
C        10.96907228828090   10.15828581484501   14.24209620762381
H        11.95159869504122   10.23343252555790   14.68195086871829
C        10.84109411536414    9.96235332927627   12.87916472603033
H        11.72007080064012    9.87575749945735   12.25447039096160
C         9.43995623890392   11.33983146686404    9.85517288058330
C         9.93059593054010   11.60971834616739    8.58187833595408
H        10.37732504758462   10.82258214922080    7.99340941582872
C         9.87277543494807   12.89504296981319    8.07527427557089
H        10.26476397484726   13.10120785376773    7.09102072623185
C         9.32630586350244   13.91505877604855    8.83545864489751
H         9.28674840016930   14.91975525414587    8.44237796899314
C         8.83925067179451   13.64971140774728   10.10550005310282
H         8.41889753447316   14.44612758897287   10.70148052854736
C         8.89539983572603   12.36788710329735   10.61971107806838
H         8.52468011348154   12.16506657773177   11.61429077016130
N         9.59987174901049    6.41691309631244    9.44545451626007
N         8.70220931743629    6.23531476740099    8.49212448130623
N         7.93434636457170    5.19531419291826    8.64578442366683
C         9.42525027601573    5.39419225563732   10.29631689712565
C         8.35010802061075    4.61631429350817    9.77984999763708
C         7.91352641832207    3.47013664474680   10.45529235744220
H         7.10232450038740    2.88071481293388   10.06053463564217
C         8.56673267305471    3.14414435309837   11.61381648392326
H         8.26534718983252    2.26536473049789   12.16399193231324
C         9.63479872750623    3.91562796976895   12.11702154838726
H        10.11334445082529    3.59845416192400   13.03085771250311
C        10.08178332886277    5.04200948469868   11.47854391245492
H        10.90371598203338    5.64132304519133   11.84258472633586
C         8.54718828207900    7.06767765995859    7.38340669763887
C         9.43030703705340    8.14507876637013    7.15012086412293
C         9.21982419769425    8.91844286219912    5.99835175948703
H         9.90273146743804    9.73062699353294    5.79839329776927
C         8.17858718695511    8.64496912199711    5.14343464491513
H         8.04100606822036    9.25962212236832    4.26617542048961
C         7.29847295288034    7.58881088010250    5.38455746359201
C         7.50178552264713    6.80614067165448    6.50518286057845
H         6.85588449376079    5.97169003948584    6.72751837274631
C         6.17765444948541    7.30179865935983    4.43537079626833
H         6.56584058060119    6.83061802630438    3.53260477030920
H         5.67801475775606    8.22233351747949    4.14031336916069
H         5.45087941289452    6.63082691994957    4.88481150699809
O        10.39911043791267    8.42003765676202    7.97853961921106

