40
CSD_code = MOYMAO | q = 0 | S = 0 | Stoichiometry = C18H15O5PW | MND = 6
W        -0.08942795541878    2.29303112682492    5.19129629874241
P         0.99126848261502    2.52109161330480    7.41820103095471
O        -2.91803018777693    2.13088223262491    6.54512105870296
O        -0.08350081242642   -0.84661165225214    5.20443828204250
O        -1.47869479522055    2.09727649532132    2.40100527575802
O         2.70333438529386    2.44827235282166    3.75656130692299
O        -0.47297654436225    5.40668663661416    5.08451134298780
C         1.84179415562068    4.07377902758516    7.99237483901063
C         0.48811621119276    3.82868451284525    8.56636762746788
C        -0.72398778380126    4.68739643386841    8.65621690795534
C        -0.16769927785309    4.02246655936866    9.88608328323680
C         2.23905219484601    5.23937407520990    7.09483276513476
C         3.57173738730250    5.33135970988819    7.85694130882749
C         3.14733037789574    4.17179352413266    8.77421952352146
C         1.80103606362355    1.22024716852340    8.38884979427344
C         1.94711802978398    1.25424281946430    9.77219120055541
C         2.60579642991444    0.22442224115954   10.41879312512019
C         3.12346180039792   -0.83911759500332    9.69687428684794
C         2.98474296640527   -0.87407380446864    8.31868089795402
C         2.32560695679849    0.15113587763848    7.66673190250947
C        -1.88034276807929    2.19058486145235    6.07275189877188
C        -0.02838345993545    0.29349596596452    5.23196424191294
C        -0.96686988165438    2.16715498521702    3.42050732143932
C         1.69668789666044    2.38876173050075    4.29219150212268
C        -0.28201897598120    4.28198802024394    5.13132445444626
H        -1.65530916393807    4.31602209776803    8.25179648148455
H        -0.60025455913992    5.75579328320405    8.54808038466176
H         0.33867986510544    4.63814768726768   10.61755551639679
H        -0.72832727381134    3.20492470371285   10.31695847428481
H         1.59515450912142    6.11319363004171    7.18877826670657
H         2.33494112709671    4.98905554406043    6.03756907796355
H         4.44459029320479    5.11386517625717    7.24662266452932
H         3.72692107393062    6.27562168077163    8.37354026725349
H         3.78543087469639    3.29007723680597    8.72773913394536
H         3.01151188802486    4.44758113671815    9.81967701341865
H         1.54594351207991    2.08070844709466   10.33848888572316
H         2.71561483952989    0.25099452965062   11.49319070574195
H         3.63516264728149   -1.64038886597533   10.20875935833029
H         3.39059859402193   -1.69983972772595    7.75342323493255
H         2.21679087695718    0.13641852150973    6.58848905740942

