46
CSD_code = MOYMUI | q = 0 | S = 0 | Stoichiometry = C20H19O5PW | MND = 6
W         2.23482396505384   11.18562591576444    4.99049667833316
P         1.38533289846582   10.09338760970590    2.92562854807142
O         4.28865589333327    8.85924086355938    5.48085093682211
O         0.01740554312754    9.56369820653157    6.51709117478053
O         3.16784487523706   12.53849007050147    7.64690134116203
O         0.17003602400651   13.50937136202416    4.53664095064978
O         4.47159551134302   12.85816360548793    3.55544065024707
C         2.23700781593751    9.62798878847505    1.34998127245368
C         1.38479177223842   10.87283839482989    1.25862653801485
C         0.20225731422818   11.07765410433301    0.31841523224425
H        -0.78564864923445   10.86564959015509    0.72405882020939
H         0.31296665825385   10.53156717512641   -0.61836953513857
C         0.58735580152293   12.56209103891384    0.21161973286055
H        -0.09671623653903   13.21980411470033    0.74278293025198
H         0.72299295042407   12.93462466963072   -0.80101159447989
C         1.88365621595630   12.28886927133944    0.99159217156847
H         2.78385407386626   12.32150681806018    0.37888917614830
H         2.03899080479505   12.90821287735198    1.87648036911056
C         3.75011043297817    9.69460476255351    1.38380418946946
H         4.13310002210463   10.04315430842580    0.42115680842506
H         4.12682843729343   10.35197290597168    2.17004006765303
C         4.11501760002137    8.23095428465359    1.61072806277127
H         5.15077615220577    8.00827258757364    1.36091775283377
H         3.95565423007097    7.98786708397992    2.66358932282744
C         3.12209245612845    7.45260338511418    0.73477689989423
H         2.84594461800015    6.50643387287692    1.19824547378469
H         3.56886308671298    7.22788529392464   -0.23367042398291
C         1.90279777288334    8.37714962602161    0.55735607116634
H         0.97153749135562    7.91435035924536    0.88322751354129
H         1.78038131770215    8.64757700958600   -0.49450276639202
C        -0.15975677608674    9.15061367387483    3.04107781838559
C        -0.14037685933659    7.76851587131285    3.20173583997187
H         0.80512271460981    7.24262326580895    3.18688204801332
C        -1.32375112636119    7.08007779904499    3.39767183566547
H        -1.30938903519337    6.00669279400134    3.51795169197036
C        -2.52538173548574    7.76759267293542    3.45314364439326
H        -3.44757221641328    7.22793744109220    3.60915706384082
C        -2.54499809205336    9.14798087035847    3.33171109389685
H        -3.48055900417067    9.68347736615313    3.40033835537389
C        -1.36493866739515    9.84097056620385    3.13582409736969
H        -1.36505767181114   10.92189301695185    3.07178881366200
C         3.53890905120021    9.69937471897000    5.29182392461062
C         0.82682975349132   10.15111778421480    5.96691517993553
C         2.82860678404145   12.04299432616060    6.67446601618878
C         0.92362631095356   12.66554045377920    4.69444088203427
C         3.64587972053828   12.23178742272137    4.03758732938585

