88
CSD_code = MOYQOG | q = 1 | S = 0 | Stoichiometry = C41H42ClNP2Rh(1+) | MND = 8
Rh        4.53455018838788    2.33458789407106    2.82676744617547
Cl        5.90541744580201    2.83093163020528    0.99217176383956
P         5.89838326886315    3.78650588261139    3.97848440291996
C         7.65255251650957    3.32030311457115    4.12182877638414
C         8.49383627350000    4.07069904823359    4.94256430457600
H         8.09668889676625    4.89528969159360    5.51858607793421
C         9.83525259566628    3.75144811506042    5.03461482829554
H        10.48147083504299    4.33513519433354    5.67246365007267
C        10.35060999694246    2.68666971767537    4.31135036613809
H        11.39821291958964    2.43993284229617    4.38827880020299
C         9.52090245509929    1.94469060535941    3.48830710439482
H         9.92116957194383    1.12081197588053    2.91692495357081
C         8.17635185429627    2.26012747201652    3.39193111617492
H         7.53359140879190    1.69664989800141    2.73140245150041
C         5.44746187612513    4.20200077463468    5.69418255810823
C         4.48530086223689    5.17673772722982    5.94403226973417
H         4.02757716514843    5.69704541815927    5.11736352053767
C         4.11388379778992    5.47279371472423    7.24315112364021
H         3.37400311429096    6.23746896093079    7.42598361106106
C         4.68852570261407    4.79315804021523    8.30504493357143
H         4.39823243271987    5.02502218370553    9.31804113734794
C         5.63991214292819    3.81512128080437    8.06294650722831
H         6.09219359256995    3.28425363574707    8.88697819934634
C         6.01609351683429    3.51599244064213    6.76554855224572
H         6.77134819281620    2.76519078541994    6.58351360854828
C         6.12814587409185    5.45110093190693    3.18879973808697
H         6.75642521036573    6.05236199981784    3.85529902618920
H         6.68861589697748    5.26361011051057    2.26444330608127
N         4.85800766793196    6.10115198437946    2.89653782799361
H         4.77121965442694    6.96193416906679    3.42930114651565
C         4.66250462283260    6.36082355636947    1.51528704850171
C         4.03018897442452    5.36053535707736    0.77739472248158
C         3.86609882130201    5.52659262042417   -0.59239924313655
H         3.38189198224088    4.76670035489207   -1.18490528544970
C         4.30707706436847    6.68760917693464   -1.20428603463595
H         4.17558699330217    6.80973560252779   -2.26822730001715
C         4.89331904721666    7.69715849315251   -0.45966560287900
H         5.21755744878055    8.60732378947485   -0.93982120466999
C         5.07429732320405    7.53418370307197    0.90294884442992
H         5.53971136836626    8.31278963425204    1.49087867401114
P         3.32176870061364    4.00638940217109    1.77351834652300
C         2.23702419750191    3.21220439698327    0.53952720364745
C         2.82606831801770    2.56277519942380   -0.54571342612238
H         3.90370505889556    2.50806364818658   -0.61244860253353
C         2.03799969882690    1.99097037297119   -1.52834080745001
H         2.50206168592059    1.50125150475690   -2.37116736366788
C         0.65636185081913    2.04413347778015   -1.43029758970845
H         0.04154666326370    1.59849349495800   -2.19699521098640
C         0.06646074587369    2.66693709565094   -0.34293099586462
H        -1.00918116681675    2.70328890874459   -0.25800182234564
C         0.84925330049801    3.25033034673376    0.63947669214028
H         0.37640111940040    3.73937412321976    1.47863847835147
C         2.14557683560512    4.93466396321301    2.80710234546874
C         1.43447385774843    6.01050075769637    2.28202838024084
H         1.59223949237297    6.31211696401388    1.25608740917121
C         0.52382358203679    6.68425594284830    3.07488975638879
H        -0.02775410370962    7.51749137570878    2.66658786643732
C         0.31336034871418    6.29110305129892    4.38832884149711
H        -0.40147717919467    6.81934284564465    5.00040147780428
C         1.02088349011921    5.22274577882646    4.91331232380300
H         0.86320036295250    4.91739715344039    5.93726939368343
C         1.93604754239317    4.54859027079889    4.12351386802520
H         2.51267783752499    3.72614357580937    4.52538198257217
C         4.93769970783115    0.57109995815958    4.14474940672647
C         3.61712411069369    1.10103797080579    4.42126821197287
C         2.81626893032784    0.91795713100501    3.25051950330218
C         3.65357206866634    0.36762180107770    2.22698845183107
C         4.95095411353203    0.11588137690064    2.80133354585106
C         5.96093672960972    0.24433826167084    5.18552376956808
H         5.74476535975727    0.76070908493662    6.11615329268925
H         6.97072596833741    0.49729612579643    4.86750940520531
H         5.92816035895530   -0.82993885454991    5.37649811750974
C         3.10637268336205    1.39574197459222    5.79688005407474
H         3.73697362331418    2.11168119418526    6.32291705834372
H         3.10028696219028    0.46905818881741    6.37338491708453
H         2.09016047166150    1.77944492480344    5.76903217841237
C         1.33114403767483    1.05226077212060    3.18096459962955
H         0.96713526930275    1.88085425335161    3.78456284437931
H         0.88468496230983    0.13132355121794    3.56150626186441
H         0.99154162877947    1.19524995221976    2.15808956611269
C         3.20551198390570   -0.23192775683645    0.93467156410038
H         3.94153559961095   -0.07118029956036    0.15010812263973
H         2.25098476637035    0.17160628851346    0.61000672233153
H         3.09261515720428   -1.30922417272968    1.07291069927034
C         6.03465931957105   -0.65393380457606    2.12257145003509
H         6.32544457218913   -0.18419396971083    1.18275814008000
H         5.66568295083579   -1.65406174295724    1.89067550811619
H         6.91126585150370   -0.74564538814718    2.75850033474979

