90
CSD_code = MOYQEW | q = 0 | S = 0 | Stoichiometry = C41H43Cl2NP2Ru | MND = 9
Ru        2.60214004273771    2.78206521945329    1.27209726065396
Cl        3.97259434445798    1.52476823770758    2.82571120634995
Cl        0.93769794387920    4.03911329447873    0.02357344274915
P         1.19157179544169    3.41180953831634    3.07137134052577
C        -0.58108153208950    3.00020397863699    2.90816096280555
P         5.61237265696255    3.87874225017051    5.46781226738605
C        -1.44238004099158    3.88930887250305    2.27188375067076
H        -1.05952402196335    4.81782299760920    1.87689720781896
C        -2.78284213413853    3.58122739664865    2.12949626563457
H        -3.43970403048669    4.27641792040747    1.62813193918038
C        -3.28162136627865    2.38789799946105    2.62389058147126
H        -4.32841991020955    2.14791852189563    2.51088567080851
C        -2.43189585812353    1.50140367715178    3.26393300063739
H        -2.81482387058991    0.56922512969051    3.65347359304006
C        -1.08929918531013    1.80196892109259    3.40464267351604
H        -0.43877252651736    1.09655279700026    3.90132441339083
C         1.02304372732735    5.16221416596602    3.57578927914100
C         0.77089227081538    5.52055578412201    4.89605944692900
H         0.75135892744790    4.78297936123483    5.68017142615478
C         0.54504259492294    6.84436246253056    5.22876365471473
H         0.35334336956379    7.10712461876192    6.25919937199790
C         0.55885934738064    7.82640731217847    4.25336522193118
H         0.37226200389606    8.85733447789403    4.51751339289209
C         0.81118746466171    7.47831913334775    2.93747582283204
H         0.82384640088208    8.23631768812497    2.16787573853811
C         1.04255233682172    6.15734157566897    2.60103049718688
H         1.22539180004016    5.89271002587410    1.56948498089559
C         1.61451243040169    2.57082924315229    4.67259691683951
H         0.76967452421094    2.67179311784015    5.35700585406384
H         1.78146309863847    1.50205741315121    4.47076552491347
N         2.79642093624081    3.20508273351278    5.18135062983906
H         3.61249313103358    2.97899375573447    4.61024969298471
C         3.09219317750627    3.38536333600294    6.50997692594444
C         4.40058919616972    3.80236625419110    6.84144641865599
C         4.72986476721232    4.06450094284685    8.16137263069406
H         5.73621944272929    4.36844392197769    8.41061095953595
C         3.78475451674490    3.94587092587919    9.16617452995121
H         4.05262434661771    4.16086769190780   10.18947300459120
C         2.50036756500253    3.54395852136041    8.84669967833776
H         1.75613707198026    3.43985037746962    9.62325008681061
C         2.15594848438717    3.26280945821426    7.53801077512947
H         1.14913177186925    2.93112160443711    7.32858973300693
C         7.15275798379387    4.19709357252415    6.41231161968449
C         7.84421052664797    3.06958480346953    6.84829684358620
H         7.44763898395113    2.08941627311030    6.61844927321880
C         9.01556458309722    3.19991525287596    7.56988998340398
H         9.54217568550984    2.32000841120452    7.91042448432347
C         9.51634221643666    4.46095447173372    7.85045770360706
H        10.43363970326217    4.56692718996738    8.41121090134979
C         8.84014769874047    5.58607967475611    7.40872546869129
H         9.22990645390280    6.57038500106583    7.62673246255873
C         7.66302000029574    5.45956339236464    6.69257868737867
H         7.13838513973767    6.34314820114790    6.35747904791094
C         5.28866243980596    5.56126990141249    4.81181773613275
C         4.22561792508067    6.36340185382857    5.20457200135011
H         3.56036390745256    6.03521217128296    5.98963955360945
C         4.02285608316279    7.59048325831700    4.59668357015507
H         3.19999738353445    8.21352300786267    4.91513094653664
C         4.86473231362847    8.02000736224936    3.58555370289723
H         4.69786510636607    8.97676001599485    3.11219097604455
C         5.92391678437862    7.22089079837146    3.18306921493151
H         6.58423984334518    7.55236362482924    2.39446545045755
C         6.13106700454396    5.99846390139295    3.79026667383647
H         6.95439354471734    5.36725523544605    3.48083845929467
C         3.82138464934561    4.48096847047429    2.03155228004209
H         4.52942408328301    3.99172186130950    2.70036767549809
H         3.44182366318612    5.41834585416728    2.42794763329820
C         3.73315257024188    5.55115290228613   -0.27351999794947
H         4.57376763908475    5.72654727846816   -0.94371051402980
H         3.55379260639235    6.45129148121492    0.31041178368793
H         2.84436886212139    5.35391502262773   -0.87365546362456
C         4.05894223865608    4.40521254224601    0.64243373272503
C         4.52822307680638    3.16262995802716    0.18225106307251
H         5.21681270681475    2.60583855546183    0.82207692378981
C         4.65809449441341    2.82330736202312   -1.28610820339982
H         4.13290601754443    3.55585650996757   -1.89956773424853
H         5.70846156134714    2.79597135091307   -1.58938325017390
C         3.98061535528544    1.45814294988667   -1.43334867253469
H         4.61913347620856    0.68145186003109   -1.01252180621415
H         3.77763971485511    1.21411803879584   -2.47906237254391
C         2.69148821302746    1.59278290017019   -0.65473508449312
H         1.90890480563814    2.11673939477813   -1.20695307641251
C         2.31262062927926    0.73393915730807    0.38528911935406
C         1.17083319524702    1.13007928441070    1.12955345032596
H         0.30137321750039    1.51711821026404    0.59464306315879
H         0.90386468679692    0.49416433742946    1.97165454579821
C         3.08824292304493   -0.50023718594893    0.75235917328702
H         2.95087303139610   -1.23232319795293   -0.04537201373312
H         2.72031142555673   -0.92343671214990    1.68386980581528
H         4.15325683422696   -0.31372821697461    0.86945540739810

