66
CSD_code = MOYQIC | q = 0 | S = 0 | Stoichiometry = C21H37Cl2NO2P2Pd | MND = 4
Pd        2.66222977359727   17.15723835718295   13.78943001194913
P         0.46765700001609   16.67860161063741   13.62145881150415
P         1.07312617913690   19.48957516181766   14.29131255097097
Cl        4.82615528134174   17.79775068422703   13.67324416998275
Cl        3.30841239173619   15.11089700049274   14.37750535945595
N         0.84661985532865   15.66663422491516   10.46168623269079
O         2.04880773559556   19.11036397459318   13.23228197949716
O        -1.42404287678887   18.56965097104761   13.52957572589698
C        -0.33001076860228   18.20542725332556   14.33950189056811
H        -0.70542770070069   18.08480799368936   15.36059481718961
C        -1.35418976284105   18.00685194872686   12.28604183284508
C        -2.28354949731265   18.34347227222081   11.32012213150778
H        -3.06110251405426   19.05596679485447   11.53981648889336
C        -2.18088106646957   17.72218389274089   10.08416071224445
H        -2.90051718942808   17.95747149964496    9.31488723438170
C        -1.15829601031537   16.84287377532800    9.80623699634193
H        -1.08868427071422   16.42756346512482    8.81477280219856
C        -0.18291073713409   16.51167320185166   10.76548973201387
C        -0.33779868438820   17.07424866937534   12.05022369467030
C         2.18600589214154   15.87139421859088   10.97717109103432
H         2.32353035765233   16.91919955234451   11.30654689164836
H         2.90278330302381   15.69281298804098   10.17283383031717
H         2.41915644741906   15.17657292354884   11.80005012484874
C         0.77137409038373   14.79637412681809    9.31351676820906
H         1.07602943917600   15.29299009668727    8.38426439967304
H        -0.24182046109052   14.41468567453904    9.19650923849698
H         1.43395529502139   13.94793827172091    9.48463142691916
C        -0.49406363722356   15.19741553814515   14.26422052923358
C        -2.00146266649748   15.36962021660470   14.10459832875338
H        -2.50926229140003   14.49630656131635   14.51110459362520
H        -2.27622181065958   15.46420647634789   13.05535245444717
H        -2.36561216515013   16.24778424079761   14.63580221760895
C         0.00867636515484   14.01070000418461   13.44263893195652
H        -0.21373325853850   14.15026336534319   12.38571169563754
H        -0.47204524524292   13.09321973164837   13.77718705351851
H         1.08551026610816   13.90431228311278   13.57549304547610
C        -0.11016824726323   15.00693160846840   15.73011801329932
H        -0.49568609392070   14.05613372289570   16.09320337673932
H        -0.52609516561547   15.79632053972593   16.35605167575031
H         0.97647797972923   14.99309777870697   15.82918602787296
C         0.34859406367366   21.14518713625843   13.75255975572625
C         1.40505806843109   22.22432597332423   13.98525576058388
H         1.11675623883284   23.13513347902710   13.46146674550900
H         2.36492318029707   21.89642461983697   13.58869097866728
H         1.51577478742257   22.47221559654611   15.03786005666142
C        -0.96617197296669   21.50088507936890   14.43648013165945
H        -1.35925177348309   22.41411438822390   13.99085019976916
H        -0.84115008296034   21.67744184009059   15.50020981617045
H        -1.70211303411473   20.71390816770326   14.29625227197403
C         0.13317979827540   21.03054120507399   12.24162213929639
H         1.05059633675665   20.71140074900386   11.75112836251610
H        -0.14811422173544   22.00285142087759   11.83967807138283
H        -0.65583316143436   20.32678698230936   11.99568559842942
C         1.84156362485186   19.49894624953410   16.03684312412518
C         2.00191261994443   18.07928860273683   16.60265334103110
H         2.30276773089358   18.15847975629514   17.64750644125426
H         2.80746925261696   17.52325038189751   16.08450044908519
H         1.07469699045284   17.50614283758434   16.57056881579751
C         3.23749725065786   20.10630685986091   15.91743232136906
H         3.76405062256471   19.99963374051147   16.86481905411016
H         3.21061539235819   21.16176895160725   15.66449766831152
H         3.81386795059518   19.57767958900920   15.15241689339366
C         0.95725899498214   20.29336070067963   16.99677882769872
H         0.92938371841147   21.34803422913394   16.74012101104527
H         1.35782100816819   20.21479934194189   18.00670186335682
H        -0.06027891469122   19.90565945020817   17.00648541125954

