60
CSD_code = MOYTID | q = 0 | S = 0 | Stoichiometry = C28H26NiO2P2S | MND = 4
C         2.45901459324085    5.66127753753890    4.51593450373822
C         3.24185902336718    6.76422477888412    4.18761101873439
H         4.28514295673649    6.60684892004068    3.88307251980246
C         2.71180702862152    8.03897674521405    4.26387181675299
H         3.31884382475970    8.89508665568165    4.01017729741529
C         1.39946358048980    8.21272277370106    4.67420821859136
H         0.98303504547175    9.20700160680189    4.73893716093341
C         0.61995223015024    7.11642339183458    5.01127273866998
H        -0.39953208947883    7.26004746497284    5.33814065307098
C         1.14501301117898    5.83934390415161    4.93477641330118
H         0.54619151186051    4.98117217433843    5.20831623932057
C         2.70625964867324    3.18597369408827    5.88526327041074
C         2.10030461857542    1.93521224352099    5.90818730578075
H         1.88722876498635    1.41160446410772    4.98767087926334
C         1.76804060332780    1.35500421124252    7.12005613278820
H         1.29200194959926    0.38533681087934    7.13642296541662
C         2.04956965480375    2.00882390855298    8.30791519053259
H         1.79139826977116    1.54832078402424    9.24995087069145
C         2.67166171459043    3.24755195020266    8.28824765652890
H         2.90250686749230    3.75178592789306    9.21448638271285
C         3.00345807711625    3.83399553274980    7.08282159555387
H         3.50628567415598    4.79058347416016    7.05094307247274
C         4.67935885868652    5.10453002047428    0.06113681293363
C         3.69761573750448    5.50094601854397   -0.83974645038511
H         2.65422179784531    5.30516218969127   -0.63909131589513
C         4.06192997453091    6.15312638005542   -2.00514615283901
H         3.29974868871377    6.45711135993833   -2.70827112154162
C         5.39524171545220    6.41844558499234   -2.27079903474172
H         5.67007889458349    6.92854182379980   -3.18227500219913
C         6.37369836256991    6.04024561553795   -1.36428964119597
H         7.41179215193380    6.25945969137729   -1.56348328610193
C         6.01936407505462    5.38853090008081   -0.19871149225006
H         6.76665593749903    5.11045072564073    0.53232830484045
C         4.90708794827589    2.53826975911387    1.23703487645505
C         5.54975547495278    1.82549433386002    2.24536852127272
H         5.73248886279036    2.30768742061308    3.21668757819470
C         5.97097883678477    0.52812476245116    2.01882418999539
H         6.47208800236204   -0.02247707939358    2.80093586149384
C         5.75474437204655   -0.05890453269433    0.78232437810332
H         6.08695130832234   -1.07030428017103    0.60068450865932
C         5.12270195496184    0.65088487175275   -0.22712388760644
H         4.96503421703198    0.19172885221402   -1.19213301350745
C         4.69860091301903    1.94832836681163   -0.00492650791998
H         4.21693234120367    2.51031828637725   -0.79372880384063
C         2.21596735139525    3.25359590074295    3.01061835289107
H         2.52671284664268    2.20777180434354    2.91908107238434
H         1.15237697819917    3.28829526424978    3.26353598507312
C         2.51703339101314    3.99171784633562    1.71000407068572
H         2.04959655967994    4.98161440521148    1.72316667388240
H         2.15238789380224    3.43394936802003    0.84342749261074
C         7.86893393587123    5.28000136051825    3.64577286446810
C         7.75623118826809    5.03938835559833    5.15515864246744
H         7.89887935991208    5.98043433391361    5.68942425831427
H         8.51366727475452    4.32495465765701    5.48025342568018
Ni        5.17233932170172    4.46867294926103    3.63440314934284
O         6.79502855471874    5.09127252786367    2.96622658991024
O         8.91419104058130    5.63718557388880    3.14265716686472
P         3.22630827074601    4.01948402417444    4.36512717729499
P         4.35606237662487    4.23430110133541    1.61529353412785
S         6.11790667047960    4.37204050124375    5.57846631959166

