62
CSD_code = MOYVIF | q = 1 | S = 0 | Stoichiometry = C25H31FeN4S(1+) | MND = 5
Fe        0.16063669506509    4.43214688176701    3.20977850797582
S        -0.08141018081518    4.12916304452553    0.99223839810437
N        -0.03532012840109    6.39829138620728    3.01475358226380
N        -1.80421796518194    4.29311698441667    3.58961081429932
N         2.02630825988728    4.82398030530786    3.31783806027208
N         0.21271342063843    2.53041017878866    3.39773419435048
C        -1.17238965350818    6.95870842840657    2.28244539176213
H        -1.10602472120779    6.57567806805304    1.26300020806278
H        -1.08972266837498    8.05268139179572    2.25510431024691
C        -2.53068233589923    6.57338492657711    2.84382744650291
H        -2.67163839258556    6.96679135766166    3.84972040550816
H        -3.29021265259516    7.04051116713198    2.21555815220998
C        -2.75941582463273    5.07156490438082    2.79626588767836
H        -3.78292308772132    4.85250317148695    3.12661721604294
H        -2.64130645117694    4.74490937640075    1.76144381998959
C        -1.70776954622983    4.74497601716771    4.98572156927118
H        -1.75536788656151    3.87275681917169    5.64264124452715
H        -2.54637788670869    5.39549815144599    5.24646870291805
C        -0.36305203235396    5.43607180332019    5.26634316492004
H        -0.33411852279204    5.69842449013010    6.32545466732870
H         0.43875104589613    4.69310187980403    5.10297724471650
C        -0.05532145331448    6.70668269121328    4.44999241984976
H        -0.77291522673491    7.49952566276160    4.67640426176705
H         0.93184248327236    7.06328965089023    4.75633413270413
C         1.18818312255944    6.81298702417849    2.32387301013782
H         1.35535666315590    7.89433009962920    2.38997735547923
H         1.05889984082089    6.53665367358375    1.27352522304696
C         2.34489979708280    6.05061407019135    2.87876331864958
C         3.61963996691252    6.57865845873139    2.98085422671877
H         3.82576479741136    7.56056094872524    2.58577353984289
C         4.61486442492381    5.83117791076379    3.59347905232539
H         5.62378715900791    6.20326050583001    3.66232756186557
C         4.25694198538835    4.61549431262291    4.15608450714481
H         4.97013511297308    4.02368571140150    4.70555297976112
C         2.96141168606263    4.16123916348891    4.00278031519871
H         2.64951841798403    3.23990668304874    4.46505940742673
C        -2.16464066849495    2.88227324788432    3.49421789305779
H        -2.50831160716433    2.70126605939783    2.47064563647638
H        -2.98369163087271    2.62039072371779    4.17433601985213
C        -0.97827963396309    1.98657796590981    3.67934927729500
C        -1.13488455843537    0.63990026505224    3.96457295390993
H        -2.11234762607419    0.25441466401921    4.20722050907892
C        -0.03456860826772   -0.20052360504229    3.90100909340255
H        -0.12864472995077   -1.25099283006046    4.12325901928874
C         1.17286225433782    0.34263598544104    3.49221455451999
H         2.04590438439342   -0.27258331543539    3.35278588752325
C         1.24542068656365    1.70104630081032    3.25015392814587
H         2.15599732224789    2.14194369634924    2.88369151283358
C         1.15442100735782    2.98277868239724    0.54790046471382
C         2.49349402548482    3.36142204934475    0.51223955821082
H         2.76373030373872    4.38344008312132    0.73336550658362
C         3.46622046998356    2.43527056676645    0.19570479812469
H         4.50349671203162    2.73831066407749    0.17589308419573
C         3.13158721380614    1.11982615125082   -0.11307642787717
C         1.78955775251546    0.75739321180569   -0.09899424918558
H         1.50821122846379   -0.25512443485916   -0.34961015359098
C         0.80996254839127    1.67255694078418    0.23120681070237
H        -0.23075367959984    1.38290218363880    0.23950837161001
C         4.19343095217379    0.13215285801911   -0.48219612314475
H         3.84140281870040   -0.88795433179456   -0.34985408843941
H         5.08948610814921    0.28102355363354    0.11716056434111
H         4.46946869228390    0.26011536276313   -1.52922870249292

