62
CSD_code = MOYVOL | q = 1 | S = 0 | Stoichiometry = C25H31FeN4S(1+) | MND = 5
Fe        3.20440948259610    9.23953991518443    3.17214233976522
S         3.25407929070372    8.85383225020819    0.95305999713991
N         3.05474553321879   11.19832619636671    2.88781563144528
N         1.20524427599496    9.12410871412953    3.28791229503257
N         5.04473587413701    9.62604747834773    3.51318585830105
N         3.21119263805193    7.34370016169284    3.43368808963943
C         2.02959121452533   11.74253611158516    1.99546960138399
H         2.22537053755555   11.32751983809679    1.00561308675724
H         2.12635753606957   12.83464180957909    1.94663393890609
C         0.60542974318743   11.38333647145067    2.38406264411078
H        -0.06004397972612   11.83526476622142    1.64738649818848
H         0.33721910550037   11.80856828673233    3.35033666326209
C         0.37078136173356    9.88213347796339    2.35176446434746
H        -0.68941868668572    9.67879472121527    2.55002698177290
H         0.62144036249608    9.52253639823047    1.35209276857240
C         1.12055443769009    9.61848815038691    4.67020295994761
H         0.97824189909738    8.76722182191278    5.34082980965443
H         0.26127555165941   10.28154818806915    4.79836827130509
C         2.42376249286035   10.30983069326368    5.10446968577531
H         2.31611124289932   10.60490445936501    6.14978640213028
H         3.23254461161391    9.55698610207514    5.07069393164510
C         2.84959653257900   11.55233057912194    4.29779534519982
H         2.11711433441516   12.35674981609624    4.40347689378151
H         3.79175489148088   11.91170446286347    4.72048815395492
C         4.36168153828384   11.58349294176416    2.35042441096213
H         4.53014955447572   12.66532844408260    2.40497785040539
H         4.36633246340640   11.27591425203594    1.30068725546011
C         5.43081763186678   10.83176036778483    3.07069906238115
C         6.69391179781645   11.34804197501999    3.29969233161468
H         6.96017445838110   12.31183206005959    2.89600490960987
C         7.60105886480537   10.61051362719203    4.04667540227768
H         8.60268088125308   10.97091926666704    4.21459891751534
C         7.16117019114398    9.42158528763671    4.60840186657748
H         7.79803194600656    8.84106861076771    5.25501355292099
C         5.88324014905579    8.97933253776273    4.32606762349891
H         5.50451647999882    8.08165987797792    4.78467452610978
C         0.84778062482990    7.71319563628680    3.18773367693178
H         0.65249374123202    7.50036637557357    2.13171900648255
H        -0.06246033497491    7.47847726073716    3.75195091284635
C         1.98671658352998    6.81864750346266    3.56966350838461
C         1.77680216884730    5.48582533641759    3.88410692419695
H         0.77089580905788    5.11622317540377    4.00409540370607
C         2.86579154439163    4.63736454347748    4.00771437989299
H         2.73026895471030    3.59754933251554    4.25697821542150
C         4.12405402283910    5.15634900723996    3.74860926811327
H         5.00092859633847    4.53094248968780    3.75627178821764
C         4.24468720643097    6.50306374803710    3.46338677287216
H         5.20205085543556    6.92271000995307    3.20855753601354
C         4.55619923760984    7.71272153668808    0.73922315901478
C         5.87632395234225    8.12496981841752    0.88913299204825
H         6.08483125898844    9.16596780597719    1.08796689196199
C         6.91961946747029    7.21944429680395    0.78587430551551
C         6.62656524253473    5.88956232710928    0.49848799526107
H         7.43181096284758    5.17588854715396    0.40785691965498
C         5.31747267405306    5.48058944452467    0.31281850525154
H         5.10419389197610    4.44936390237289    0.07429560112713
C         4.27861958316813    6.38322922874888    0.43930867328342
H         3.25389745389194    6.07122662011055    0.30254734783248
C         8.33809433373270    7.66944372807496    0.95781781960715
H         8.92601552075730    6.90989764696123    1.46868127044225
H         8.38792351415154    8.59834762743778    1.52283918325952
H         8.79286689365101    7.84113293192163   -0.01775807869272

