17
CSD_code = MOYXUT | q = -1 | S = 0 | Stoichiometry = C2H6Cl4NO2RuS(1-) | MND = 6
Ru        8.23553755132190    7.08396965311156    2.37948993938261
Cl        7.87709668228005    8.73317235691235    0.76485262479941
Cl        7.87531825834377    5.44837200419151    0.75124171858152
Cl        9.11402322752837    5.40906487259778    3.85130416936777
Cl        9.11538040458359    8.74612257430861    3.86372440101338
N         6.69035805193657    7.08261776231462    2.98361060133432
O         5.62173941672982    7.08045577357201    3.43100882395171
S        11.18712076141804    7.08179283150246    2.93396187854098
O        10.24563387068801    7.08588821689772    1.76792270774360
C        12.31796496592276    8.44657372579504    2.46215346942129
H        13.21768993750093    8.39333112551427    3.06290817517579
H        11.77811519469527    9.36422953241363    2.66951880552687
H        12.53642294046782    8.37168270184201    1.40386965543589
C        12.32259729127997    5.72604525642782    2.44698219704919
H        11.77051654230578    4.80617357350972    2.60742057189189
H        13.20330441934954    5.75226575265807    3.07713455180747
H        12.57528048364900    5.83374228643289    1.39919570897672

