84
CSD_code = MOYZOP | q = 0 | S = 0 | Stoichiometry = C31H50NiP2 | MND = 3
Ni        7.01717182039167    3.87414769890626    3.94401155972075
P         4.85953694602882    3.74582084495567    4.33399341722391
P         7.12921969363132    6.01291723869251    4.48702749396874
C         9.93433957943856    0.68721475580533    3.65612654770136
H        10.24465345213207    0.90913491637379    2.64440362417267
C         8.07193321468467    2.12604050067945    2.02462749304357
C         8.15369031325065    2.41189247576894    3.45776328893321
C         4.03158267478192    3.41918794726720    2.65989885696941
C         9.17233587371346    0.14079732327777    6.26268126084555
H         8.87036871597127   -0.07916272750667    7.27736586807560
C         8.39516609202820    3.10359986702371    1.07267251278675
H         8.77651876715726    4.05630334317832    1.41921796274457
C         3.97159946933957    2.78052076466498    5.70483028766515
C         4.36346809703353    5.51871248574360    4.66921281698126
H         4.15049118494831    5.97272078083139    3.70116336348892
H         3.45306605564781    5.56821512821258    5.27239148618046
C         4.45522147136509    1.32919356233988    5.64478566153767
H         4.28043279138776    0.83221591537288    6.59830374505672
H         5.52275977447184    1.29811945434008    5.42945077214218
H         3.93995751258915    0.76189557882515    4.87619083873550
C         8.33768851329872    6.09781754463362    5.95086303910088
C         7.32437065605427    7.56090091868100    3.40008334695201
C         4.47586897162103    3.38284203983842    7.01914813780516
H         4.14699827169203    2.77512907955454    7.86187671017267
H         4.09825618122915    4.39159039941642    7.17089693795678
H         5.56426850965142    3.40203182001187    7.02014738304856
C         5.49495724116278    6.29942037753895    5.34889314237132
H         5.61429520684230    5.93574945336619    6.37009130515431
H         5.25015680623534    7.36394903139389    5.39613077876173
C         8.84612233998333    1.38576826694832    4.20788536682009
C         2.44790086035139    2.83139944448601    5.67561979156019
H         2.05512828251744    2.42486798609957    6.60778074205563
H         2.04927425244381    2.23163308778018    4.86214889869441
H         2.07842789985892    3.84948387515788    5.57252199344486
C         8.49873575407342    1.09842497376213    5.53833470783360
H         7.66571207334882    1.63005030715260    5.98046823962812
C        10.24805392488822   -0.53237407003019    5.70027104319731
H        10.78677160685528   -1.27254775194692    6.27400064923282
C        10.63072778722095   -0.24263301109336    4.39949826416241
H        11.47314853557648   -0.75847917892494    3.95955300688027
C         8.16831256364362    7.23125008125366    6.96089365233488
H         8.73283789931226    6.98488351680748    7.86055794323880
H         7.12827591095450    7.36653158768834    7.24864978889848
H         8.54780292899698    8.17579809295133    6.58582917134957
C         7.62268785481200    0.88060902503773    1.56008317006692
H         7.36768070234341    0.11257432142526    2.27795789432757
C         8.27034456579653    2.84959231860244   -0.27705484849498
H         8.53916646440459    3.61195711495552   -0.99530663973296
C         2.59318646330300    3.89828581954556    2.47571628677206
H         2.33149279755464    3.82472811894803    1.41989555756521
H         2.46506405181385    4.93487348765386    2.77869877413244
H         1.88848713113248    3.28973336138311    3.03319166819456
C         9.75980995548289    6.08733103302370    5.39076856322191
H        10.47681003134096    5.89731857215253    6.18896367396178
H        10.02090155512023    7.03738473079059    4.93080865214441
H         9.85487927593461    5.29177172980348    4.65044655573796
C         4.94232602693636    4.15472798453832    1.66541682046661
H         4.87545291454565    3.70904825171272    0.67402590764300
H         5.99428564546043    4.08751395184889    1.99175483439694
H         4.66225580884774    5.20213541506487    1.57735389190674
C         4.12597228788195    1.92266198732365    2.36555648221673
H         3.93170408970885    1.73392789951494    1.31006569210731
H         3.39913934448804    1.35669495464100    2.94212093227033
H         5.12730116785286    1.56068122700948    2.59589801259340
C         8.11486800746818    4.75735044285322    6.66526203706569
H         8.98078759059628    4.49421864959794    7.27081644442750
H         7.97125941508770    3.95989640847880    5.91121051114637
H         7.24825000254804    4.79573853107933    7.32181133803386
C         7.79104799350401    1.62440601240223   -0.71589443062976
H         7.67753423663330    1.43240330761478   -1.77316189852336
C         7.46347281727355    0.64569252805990    0.20980613719200
H         7.09477131294123   -0.31307458055315   -0.12800669452920
C         6.02013294953861    7.77042570621996    2.62754874169984
H         6.16180007497331    8.54291597530559    1.87157773185416
H         5.20842690778987    8.08921312471657    3.27747286025638
H         5.73536467943294    6.85434199198228    2.11677617216316
C         8.41523059166721    7.23746425094729    2.37667279949141
H         8.51261300321647    8.04864038390336    1.65551437501502
H         8.15471829584310    6.32787688193998    1.83676578617520
H         9.38079356148965    7.08588416545151    2.85040846078336
C         7.65975563932230    8.84763000878042    4.14639761529172
H         7.59513364398348    9.69103456356438    3.45822288683364
H         8.67066227288721    8.82529200873718    4.54276666172374
H         6.96222239113929    9.02712260652369    4.96170768467698

