88
CSD_code = MOZBEJ | q = 0 | S = 0 | Stoichiometry = C48H30CoN9 | MND = 6
N         8.03624352413157    0.36217934557290    7.04581254209362
Co        8.42573505431085    1.59471028879126    5.61194298283444
C        10.41339061892252    3.66832216100191    6.33105210558807
C         7.25132128283033   -0.62648240264898    4.04092578194565
C        11.15035766038173    0.66689928136778    5.11276988912282
H        11.54993565234005    1.47842358629315    5.69102865485641
C         8.04899849979076   -2.51730340267047    1.71655546864643
H         7.66363949055875   -1.61678548588164    1.26227101938817
C         6.22965327665984    2.69213431705285    7.26729809961861
C         9.83775558538453    2.42868919280366    8.01887972235122
H         9.35356596459120    1.65433335808549    8.58348496036763
C         9.03160352092095   -3.63161965071690    3.60904719300647
H         9.38891906278604   -3.59830954755405    4.62737670618438
C         9.70828197731792   -0.66661089639076    4.18746445744791
C         5.96116702035905    4.78231921353713    6.51229067964812
H         5.64462528281606    5.79397415511465    6.34865580231861
C         6.95637552693698    4.10582744579986    5.78740294176429
H         7.52217025157760    4.50919288217416    4.96871033490531
C        11.12821963551410    4.14982946048597    7.46154596849729
H        11.82451912539847    4.96556868390161    7.45980100436256
C        10.99952207270537   -1.15816086455192    3.85431509219827
H        11.20267398385560   -2.01698240572502    3.24481280325520
C         8.62749394303391   -0.80456075781162    7.27355946756805
H         9.52899877434220   -1.10255161434627    6.77233107751211
C         8.30263073555783    2.49382713140839    2.84097632353244
H         7.53197582979069    1.77711289653957    2.62848600923012
C         9.76336823494491    3.65088887362099    3.95599882774307
C         8.48962258270831   -1.21158748118275    3.78975781253904
C         8.09029686573561   -3.69301457293379    0.99554153241132
H         7.73227190924939   -3.72643354739701   -0.02280442373959
C         3.70811166140222    1.57056387879537    8.66343312688739
H         3.46060790084154    1.65895685430395    7.61619624450836
C         8.52066450308731   -2.47352170262164    3.02682746604193
C        10.50137177184133    4.14942362639759    5.02681173604093
C         5.76940646278090    0.84251091550547    4.63958392271117
H         5.34799975663059    1.75239235303187    5.02324848698435
C         5.04568980846537    1.48087239817709    9.04343488481805
C        13.20201672923253    7.34614325836439    4.25897355955036
C         6.94915738674267    0.42412699315688    7.89622238504850
C         8.59926006839576   -4.85018548588011    1.58659685810496
C         9.06783837875319   -4.81515706355360    2.90062963118012
H         9.45843573404199   -5.71488829275522    3.35251795198391
C         5.36606026283866    1.35585857085068   10.39360910023036
H         6.40303518788919    1.29879254491853   10.68891525475735
C         6.10934626934825    1.52772703062631    8.02290905762776
C        10.75264822425364    3.36821311291426    8.52341499456168
H        11.08331991965421    3.43759466532798    9.54133131758124
C         5.98234359828637   -1.13876492103513    3.65713350407998
H         5.80888385663746   -2.08055139825746    3.17428484507328
C         5.49472258177005    3.89500293072251    7.44809273248765
H         4.74063724195916    4.06017860264287    8.19271892437641
C        11.90348388464057   -0.31044714055598    4.44110197210681
H        12.97424678642998   -0.36358628835425    4.40805495089950
C         8.87933457442788    3.38162558516409    1.91700191665733
H         8.62872131401811    3.45436554016029    0.87669045614351
C        11.43604512423889    5.26047077554534    4.76137118586766
C         5.05345611238855   -0.20309112986156    4.03323523831055
H         3.98981564850912   -0.24023184760690    3.89980922040903
C         4.37209727930456    1.32510809291361   11.35017861476460
H         4.61960071473598    1.23561859715002   12.39758969652640
C         7.94605314706022   -1.54828710813451    8.25149287371754
H         8.22388955405612   -2.52183596653026    8.60579525942480
C         9.79929538666326    4.12063802789559    2.61463442094671
H        10.42697255652946    4.90803896804275    2.24530203296010
C        11.21967123037924    6.51451678821096    5.32751345430611
H        10.35541543795042    6.66967443213718    5.95605098771462
C        14.10173923334331    8.40683279296351    4.00417768578546
C        12.54379299490889    5.05972116997762    3.94093050987928
H        12.71224765424188    4.08434671484426    3.50917886308597
C        12.09127546615235    7.55486742145755    5.07751158907390
H        11.92243481321769    8.52963020728786    5.51067966031417
C         6.88003914789151   -0.78152790515700    8.64573753702734
H         6.12708421549262   -1.02507185476161    9.36957645263564
C         3.03446420788107    1.41028920519210   10.96185204332962
C         2.70579257484709    1.53057605601511    9.61087182363329
H         1.66847272975615    1.59403032491856    9.31717236040813
C        13.42633716934638    6.09085349922484    3.69199405832642
H        14.28914257283901    5.93586888507117    3.06128029604077
C         2.01225037065175    1.37621425047903   11.93822748369560
C         8.64240430007668   -6.05771777536162    0.85220652780281
N         7.12326006659549    2.86500487653736    6.22924732664175
N         7.07376271705571    0.59455084741055    4.66165973834995
N         9.63662426050482    2.59349341857234    6.71761423326121
N         8.81590742780381    2.65046905804050    4.05468984164709
N         9.84619104751268    0.46606740632947    4.96491165374460
N         8.67797932443919   -7.03572701694682    0.25546951268617
N        14.82845584793115    9.26866199903435    3.79680161249088
N         1.18165285587025    1.35207057731802   12.72781008755337

