86
CSD_code = MOZCOT | q = 0 | S = 0 | Stoichiometry = C45H37ClP2Ru | MND = 8
Ru        5.56160866501474    9.11043184961789    3.89068048963327
Cl        6.48452275175637    7.73196198305960    5.59668692223628
P         5.25242294457894   10.71589249465539    5.45809936658452
P         3.45643312599909    8.21228491285829    3.93931072570098
C         4.66288241796049   10.25899241984936    7.12510012141367
C         4.12386226805188   12.10209051270087    5.08474648927367
C         2.52991473370222    7.62379910323497    5.40342582812083
C         6.82325684157453   11.58564494951424    5.80594743776357
C         6.06207689664817    8.51281765670306    1.61092647866194
C         7.25042183194111    8.34172451785627    2.40412292779203
C         3.65962591339438   12.26875498949794    3.78771568508398
H         3.94824492608817   11.54952146386544    3.03335236333895
C         2.23057436690173    9.23302203857235    3.05930238933271
C         4.48208672484685    5.74997112332692    3.31502077185261
H         5.30072441784723    6.08600113518440    3.94181309816952
C         1.37714111992680   10.08932569595213    3.74849932533001
H         1.36662979066826   10.07501678156284    4.82905246797368
C         2.83011719780601   13.32996928904688    3.46954320385867
H         2.47302859673485   13.44935122409929    2.45700083346469
C         3.41122068526192    6.60480111105868    3.07008153629122
C         0.53755164723528   10.94584883012036    3.06061137475885
H        -0.12458489630874   11.60142844941550    3.60745539455645
C         1.15669423428923    7.39784309700947    5.34942993793678
H         0.59900106433109    7.64716773058532    4.45755824869447
C         2.24907898065049    9.27764625834076    1.66719493638479
H         2.92405290420401    8.62798812899988    1.12749065952520
C         6.60124588588845   10.54628668840408    2.55714814294892
H         6.65745392915351   11.61845841945016    2.71261505575807
C         3.74846547782847   13.01545033178249    6.06843113505802
H         4.11121875025321   12.89186405064535    7.07988149351239
C         3.24086648022622    7.26294961975129    6.54187253086211
H         4.31039661976859    7.41661063205741    6.57454906885389
C         4.49991068989212    4.48012394733871    2.76967720819193
H         5.33390667055374    3.82245332178408    2.96621171572837
C         5.61984021579551    7.46732631056051    0.78717934325966
H         4.76016847823006    7.60072757172474    0.14344636899274
C         2.34729190567502    6.16703541425157    2.28866925523032
H         1.49870905639769    6.81266030479802    2.10953767095132
C         6.31432410746816    6.28105203966432    0.78926533744655
H         5.98764489201123    5.47115576207165    0.15344781326307
C         6.96887417340566   12.96581758472478    5.71116599172673
H         6.12722905738163   13.58624139909827    5.43865601886205
C         0.54975536096625   10.96954729233615    1.67586791967725
H        -0.10650408340296   11.63860801174831    1.13873959526713
C         7.92784378758422    7.11325990289614    2.39171161695311
H         8.81862204048402    6.97982768361554    2.98953959336251
C         7.93403266284619   10.80447890061677    6.12492729038142
H         7.83567532402804    9.72652893897203    6.15420595479610
C         0.50278345382260    6.85586749889273    6.43938868333728
H        -0.56471853236833    6.69197231989062    6.39654423526538
C         1.21246643506037    6.51275311060974    7.57967619702448
H         0.69588302104931    6.08462291625928    8.42656234553366
C         3.28600508562456   10.19985505984379    7.33018653447642
H         2.62098498628084   10.46516958242198    6.51968064011885
C         5.61945203226691    9.87648946446283    1.78530510247503
H         4.87571803109012   10.35926268192980    1.16371234310109
C         7.54226515166083    9.60254485648540    3.03633267737254
H         8.47477903350963    9.84435146813263    3.52965730566225
C         7.44899151063604    6.10235450633424    1.59258098441919
H         7.96562143644116    5.15412476971820    1.56391832894135
C         5.51960530650972    9.90692929832740    8.16131974760589
H         6.58806672769142    9.93738997957843    8.01697015456407
C         2.45590423181735   14.23104736348328    4.45112657671560
H         1.80568062614206   15.05858236900309    4.20777481714138
C         1.41018300656701   10.13485431327373    0.98037640965401
H         1.42686332179606   10.15449431446694   -0.10032519551851
C         9.15594799939322   11.39799181328646    6.38116559126471
H        10.00843719891932   10.78414441648190    6.63442952578628
C         2.91623384574263   14.07161380787749    5.74991539297983
H         2.62565003727604   14.77609531175786    6.51603152936690
C         2.58163271985156    6.70858846426966    7.62495594721452
H         3.14206098056944    6.43108978544491    8.50513660852859
C         3.63285674859969    9.47211572548966    9.58460241265732
H         3.23458873238292    9.16842912948463   10.54164744036884
C         5.00187809995199    9.51441732524203    9.38331757672986
H         5.67412605581149    9.23989499832160   10.18306866427344
C         3.45055418201166    4.05677974833335    1.97094729223024
H         3.46447857951615    3.06773980965748    1.53637793951663
C         2.77368778578617    9.81805564323662    8.55430498485488
H         1.70415731193933    9.78077056819946    8.70252127403622
C         2.37727023024480    4.90051768335687    1.73377705071125
H         1.55373682642515    4.56733325738562    1.11783923134247
C         8.19744402917493   13.55326638275950    5.96071215203311
H         8.30039571889197   14.62638509378838    5.88419010117270
C         9.28991494469810   12.77505363974577    6.30316652751216
H        10.24545147332300   13.23958964780391    6.49828973496715

