94
CSD_code = MOZCUZ | q = 0 | S = 0 | Stoichiometry = C47H42ClNP2Ru | MND = 8
Ru        3.87447717517967    3.15046837856578    5.27175842423104
Cl        1.58659071591410    3.64041423125884    4.73259298845606
P         3.69080834306362    0.90785695764394    4.79312050798787
P         4.50584401708545    3.92400814154879    3.21804532332229
C         6.20620164416151    3.54580891334476    2.67868843055603
C         2.57162127977191   -0.05043259516164    5.88320462267149
C         5.31379406871908    3.08260100474259    7.11437603505481
C         5.50502867576527    4.34345066377479    6.44811445011309
C         4.49727663449727    5.75307071446579    3.20643437683643
C         4.01759774372192    2.35082371615554    0.99786461886226
H         4.84158337862289    1.76571254678735    1.38390895791905
C         6.69396511098477    3.96710407268954    1.44300108636416
H         6.04684820547464    4.51486972756094    0.77091257011817
C         2.98860173328782    0.23375493646851    3.23878767786129
C         1.56450624598710    0.62432239887513    6.55949060519967
H         1.48411591561845    1.69608197000085    6.44302079871575
C         5.25336529083171   -0.01488951902067    4.96404300381100
C         3.62047795827436    3.50431234016394    1.67230918768072
C         3.30218776472918    6.38746037201307    3.54692002989467
H         2.43276580219994    5.78878552971814    3.78668569630212
C         3.40630043208609   -0.95601103737189    2.65109958237183
H         4.24957962224160   -1.50078388516484    3.05116959898691
C         1.88409635841411    0.90016369827803    2.71605142347634
H         1.54949610850192    1.81887938613988    3.17712252097411
C         1.21832915329653    0.39581366622579    1.61482883175415
H         0.36212697782240    0.92209603252560    1.22000738298868
C         5.56213603158700    7.90593640098853    3.07281738058242
H         6.45153359821474    8.49634590768060    2.90340153679453
C         1.75075991104741   -2.12622292618266    6.77181947989785
H         1.81839539240458   -3.20211117485667    6.84794023200615
C         5.63303019849207    6.52556977079863    2.98990693925992
H         6.57898558574125    6.05439591618567    2.76531867311412
C         3.37623164452121    1.95613701401542   -0.15898821273217
H         3.70089425607416    1.06505857498471   -0.67627182608397
C         1.65120504932869   -0.77710520380963    1.02045228260913
H         1.13620681079854   -1.17170551560419    0.15651905850749
C         2.64630176188657   -1.43790332009593    5.97598561043297
H         3.40693604192741   -1.97666898610230    5.42863236231478
C         0.66627005707967   -0.06773753518368    7.35266251355384
H        -0.11236680476547    0.46648970854988    7.87822180925752
C         2.74467854459246   -1.44883996589864    1.54087517149900
H         3.08132240207385   -2.36938381979186    1.08489785627426
C         5.63014047819101   -0.56722970882546    6.18392652382289
H         4.94725817798574   -0.52268067336004    7.02184843313578
C         0.76450423113240   -1.44347768507249    7.46742960115108
H         0.06896079507041   -1.98753040273360    8.08985944233293
N         2.17779036678034    4.77655836918771    7.79533191279930
C         3.92000250268921    3.00475689701313    7.50321487049694
H         3.55694804356711    2.27432543350389    8.21585664286007
C         7.99533376334832    3.67780993064011    1.08087661516758
H         8.37241642062377    4.00614762502813    0.12293044944050
C         4.23229062184213    5.01738822778671    6.42513721560081
H         4.13378453890789    6.06521758669223    6.17546016156640
C         3.23466822467852    7.76585105184687    3.62045465243750
H         2.30154827141468    8.24543124583521    3.88017776576317
C         6.79262385955724    4.75713598280840    6.07436564731627
H         6.93677836804260    5.72144511585303    5.60589805876352
C         6.42589369477363    2.27393236329083    7.39319798648730
H         6.30692485412941    1.35252304215677    7.94484434470358
C         7.67407689315263    2.70312340076754    7.00394163202881
H         8.53782801646270    2.09285420448123    7.22476629557885
C         2.54793252696905    4.23861386310843    1.18105816368729
H         2.21898618543553    5.12954292386947    1.69266821726745
C         7.85692746100754    3.93261151687562    6.35454159540865
H         8.85729695293205    4.24153751319240    6.08851138811325
C         6.14379643771605   -0.06657405685617    3.89491745475771
H         5.86285139508027    0.38005323824688    2.95067231241947
C         4.36477813269738    8.53013605696968    3.37705857798696
H         4.31580619216957    9.60759840928330    3.43934247163507
C         1.64249617896003    6.01353510120960    7.26297921625288
H         2.40799057281538    6.78810122269166    7.27891955478802
H         0.81538688071638    6.33318980016066    7.89450494753219
H         1.27880882647453    5.88234999984784    6.23913378859481
C         1.16396573399584    3.87741966283616    8.30058545842093
H         0.50372557184078    3.53651320051846    7.49578903220796
H         0.56667395304266    4.40663175269011    9.04452708221499
H         1.62339969981102    3.01555344986023    8.77748564406882
C         7.03041116374334    2.82511618092560    3.52946779852652
H         6.63340427507622    2.47867282547918    4.47584877633716
C         3.33361960262656    4.28949960586368    7.27196701310881
C         8.33483259349553    2.53813502075678    3.16610442047865
H         8.96659456324333    1.97666466867622    3.83864653883481
C         2.31312728557128    2.69791938842038   -0.64763742583059
H         1.80786567259483    2.38923573205263   -1.55106720957760
C         1.89973651376809    3.83320772310168    0.02728358186566
H         1.06758013292123    4.41152614381138   -0.34742998919786
C         8.81888680497974    2.96789756376242    1.94330876614013
H         9.83650706208173    2.74753508210825    1.65491883944992
C         7.37262850259495   -0.68328667175751    4.03411575846476
H         8.05047778721201   -0.72447040301146    3.19359102050351
C         6.86137294110678   -1.18169429597803    6.32256561815425
H         7.14277125894863   -1.61401298319699    7.27239106802893
C         7.73401795809434   -1.24308893476397    5.24879741464256
H         8.69466422069403   -1.72464951604189    5.35926525355423

