21
CSD_code = MOZDOW | q = 0 | S = 0 | Stoichiometry = C9H5F3MoO3 | MND = 9
Mo        0.37697774660529    0.28982510178634    2.61647797862193
F        -1.21824821600142   -2.10291030976356    3.58866167127087
F        -1.95997935277686   -1.27454090786751    1.75512888072025
F        -0.18078041716639   -2.46820706079766    1.74824141920043
O        -2.09754014094168    0.96845735413517    4.33717349224420
O         1.30649956575103    1.63699126883000    5.23919779722669
O         1.97220098175745   -1.75324069819251    4.29798828725350
C         1.60499078713492    0.08029572922700    0.65644036714648
C         1.89198082716991    1.33321330657085    1.24245453446342
C         0.69358071951969    2.10143542441821    1.24469847562782
C        -0.32642958422052    1.31766105459682    0.66077321953090
C         0.23962006329525    0.07567498485038    0.29222135492982
C        -0.81659355699484   -1.49690203835051    2.44983427025676
C        -1.19266049596783    0.67589431009796    3.70864008634409
C         0.97837035328070    1.16340593191629    4.25049838419720
C         1.34923099158427   -1.02230826141962    3.68413297988529
H         2.33238677060493   -0.66974471806613    0.37063578352466
H         2.88002304244053    1.71197670522992    1.47487842085267
H         0.62593606404170    3.15730027368112    1.47759543034629
H        -1.31232309278832    1.66519192962306    0.37671655270018
H        -0.24774305632762   -0.68336938050529   -0.30898938634356

