58
CSD_code = MOZFAJ | q = 1 | S = 0 | Stoichiometry = C16H36CdClN4(1+) | MND = 5
Cd        8.05205835268521    8.85103186441093   18.79920753236944
C         6.73152265512969    9.61702793388099   15.76749025910623
C         7.97062210379643   10.53520017282288   15.56118490051812
C         9.17841375993238    9.60365740988408   15.85306352851743
H        10.01260781812040    9.89439734619464   15.20053365176864
C         8.70515285535781    8.17730942835417   15.51263288679519
H         9.24093511016160    7.78029133772784   14.65269985553515
H         8.90426910538078    7.51799342825343   16.36155928999458
C         7.19877267715342    8.25748443872944   15.22830119158752
H         6.65280123459321    7.43851096007470   15.69728850106161
H         7.00914703942814    8.20581900401887   14.15799928821557
C         5.46026791992866   10.10288078488635   15.06915663757737
H         4.63990069919604    9.41746305591966   15.27875130784730
H         5.58202839294823   10.14590463449424   13.99255613505952
H         5.17790953210616   11.09137015209238   15.42483585428705
C         7.94793425840386   11.80367517309874   16.41699550941007
H         7.90785469065937   11.60789581355677   17.48639413170217
H         7.08507982716102   12.40850229390719   16.14802800586251
H         8.83332081429236   12.40103764435615   16.20804311404578
C         8.08070398895087   10.97640232358261   14.09442511091664
H         9.00987910796029   11.52167077821309   13.94648590789846
H         7.26743177857980   11.64361068217496   13.82796257858172
H         8.07705523246839   10.12805725627831   13.41700862122032
C         6.81064880085047    6.74059122949048   21.09051992769639
C         8.03351736716465    5.82555176773394   20.78554052472522
C         9.26096917449103    6.76174896290303   20.95602772056414
H        10.09932320868226    6.17742581593087   21.35983355015527
C         8.83403120080113    7.84820593903055   21.95632814735177
H         9.37531875419647    7.74800122712487   22.89504840777148
H         9.05685487519198    8.83603966867694   21.54765918544343
C         7.32416928856369    7.69444510328611   22.17716861655505
H         6.82078522526262    8.65942407842019   22.12481054517509
H         7.12150429043849    7.27010851706170   23.15882491177634
C         5.55582466452980    5.99272237934522   21.54739412044185
H         4.74268244996275    6.70237878594765   21.69293376287742
H         5.71278209122144    5.47873565142853   22.48908254982577
H         5.24321100730777    5.26050785421414   20.80477234792314
C         7.96118856810082    5.15959881137084   19.40918896274544
H         7.90192788730941    5.88103635438727   18.59476514536901
H         7.08882328466116    4.51204311600562   19.36165055386821
H         8.83677016824362    4.53195781176795   19.25692552093671
C         8.15775271968766    4.71424334061404   21.83564527880045
H         9.07412342103757    4.15248514773089   21.66948019895853
H         7.32961563969499    4.01627166242869   21.76580006131849
H         8.19035373837790    5.12287573635992   22.84069670044082
Cl        7.72672640154519   10.77773133023681   20.01835562478962
N         6.44533391245675    9.46154886595280   17.21048408743357
H         5.58886610345091    8.90968199443148   17.28555393243944
H         6.21869339074232   10.38122464476123   17.59386872944643
N         9.62852968511980    9.65013717748843   17.25553328061485
H         9.79538052256039   10.62253428361012   17.51572042345823
H        10.53200205338206    9.17905568386336   17.30461898924935
N         6.45900418290943    7.53300743265410   19.88778646913735
H         5.81392041805333    8.26420459498457   20.19495759470581
H         5.93256745795489    6.92276700079323   19.26137826731697
N         9.69230221904264    7.39588398101960   19.69375610962188
H        10.02608317284409    6.66613268136577   19.06505390291509
H        10.49984369974938    7.97879745067517   19.91913204828037

