92
CSD_code = MOZKAP | q = 0 | S = 0 | Stoichiometry = C47H33F4IrN4OS2 | MND = 6
Ir       12.98578444766933   12.59701700829523   12.78635732087214
S         6.63941084037635    7.46484579750873   12.89512574025944
S        10.77159764406293    8.91609429389992    9.21359838616450
F        14.02057508352264   10.49033435968247    8.07146059075973
F        12.35007532904323   14.84994014685516    7.89474797028471
F        16.11268663294523   16.60816741808967   14.02822064470646
F        18.33762763203274   13.02661276980925   12.01528052941641
O        13.30464363363912   12.36612864018715   14.94125156474207
N        11.01291998259594   11.76163229607147   13.29273340812040
N         9.62021359645817   10.95270585956529   14.77865076886392
H         9.14016573425302   10.82182724316664   15.65387653507402
N        12.48038048300191   14.47999507395845   13.30157090370732
N        13.59820108034612   10.76568489113002   12.32457640345341
C        12.93937946765084   12.72614663086968   10.78068498106958
C        12.58060150652333   13.82264207953272   10.00266134070412
H        12.20110813236881   14.72580702125076   10.45554891354695
C        12.71265061718828   13.77651978903886    8.62933700841560
C        13.20583888975034   12.66521942017773    7.96893629760595
H        13.31832228690178   12.65099106655402    6.89775545443872
C        13.54977343151541   11.57094619830750    8.73488597070089
C        13.42687523263418   11.56653514915515   10.12294079299452
C        13.75116349965710   10.46006389366074   11.01209226162084
C        14.17161453329659    9.18717761573343   10.62796716017102
H        14.28224579989620    8.94182363771349    9.58620358811515
C        14.44571658152184    8.23612995153712   11.59232877879471
H        14.77615358375151    7.24949525309491   11.30518021052987
C        14.29591896071883    8.57182077370046   12.93080622550649
H        14.50778119223094    7.86111851561980   13.71339610417609
C        13.86932399474016    9.84692515459591   13.24710286673042
H        13.75291174234703   10.16259270030665   14.27495867096312
C        14.80262913711894   13.44614480141197   12.70561088022623
C        16.00019727365848   12.89192949835620   12.27450286343272
H        16.03429105494357   11.92356358363746   11.79941548311520
C        17.18520995919601   13.58227544875502   12.44279749232563
C        17.23453967948439   14.83099283110386   13.03489550414271
H        18.16456833919325   15.36024342151442   13.15922144254399
C        16.04350141854206   15.38109792159115   13.46236622644291
C        14.82323587588102   14.72217866268925   13.31576532444795
C        13.52001617530398   15.23988440433326   13.71780816847404
C        13.29659230788740   16.39279772400452   14.47018519397002
H        14.12539763062470   16.97426112704771   14.83385617439213
C        12.00388874438350   16.77913209159171   14.76944073068655
H        11.82248726555887   17.65707918409116   15.36986354243845
C        10.94832861136720   16.02753316316737   14.27721964685848
H         9.92375124447322   16.30237392317101   14.46798656168914
C        11.23881405017489   14.88708977813779   13.55308638692141
H        10.44290897633211   14.27482174773926   13.15284672705719
C         7.36523766879126    9.62151914208499   11.28852129095049
H         7.73184123205644   10.64077504447221   11.38156652522526
H         6.30365326258969    9.64155290853903   11.04787149025547
H         7.88784830637073    9.14677086020239   10.45740240933552
C         7.59148712563497    8.87578879200858   12.55355903699421
C         8.45484999922469    9.14333730994467   13.57975482546991
C         8.32911616976455    8.21401427994572   14.65625293536789
H         8.93337105097524    8.26138939334226   15.54610132042545
C         7.40480712948555    7.24846431415784   14.44076889359436
C         7.01986897365958    6.11549395320094   15.32265253516720
H         7.60695224846332    6.14037020335735   16.23770171378237
H         7.19022203908792    5.16313821246274   14.82128139110519
H         5.96265780631226    6.17062300064053   15.58097614834318
C        10.94254727556279    7.85298428951895   11.79356296265609
H        11.23997213639264    8.15343299399490   12.79613826897811
H        11.71438273065286    7.21443571891035   11.36836868327242
H        10.02504646194602    7.26718573147445   11.87117259866889
C        10.72830194134455    9.05308978886621   10.94194588099215
C        10.46703538641506   10.33753654254083   11.32325118000789
C        10.29105468930093   11.21634578459809   10.21694151154125
H        10.07174071533256   12.26208611633813   10.33191010348973
C        10.40613420234047   10.60377994616730    9.01408025015987
C        10.22235009018415   11.17460990754360    7.65409431575168
H        10.20805313715255   12.26028595655656    7.70552774813763
H         9.28094926445403   10.83323311700778    7.22114940385686
H        11.02559457350960   10.85871202080607    6.99145849961436
C         9.41296659585419   10.22870197993407   13.62943567898998
C        10.29493885179130   10.74938109463919   12.70990081124321
C        10.58122853174187   11.87735435679362   14.54412349464831
C        11.05867214705209   12.77680689527169   15.57413859916344
C        12.45759020286778   12.90626597667730   15.73456778420712
C        12.92276254750958   13.64927283140935   16.86605312017443
H        13.99309963307266   13.70685021393586   17.00139582163849
C        12.06612124101209   14.26490293167179   17.71637242872246
H        12.44347592133168   14.82513668666941   18.56117233813146
C        10.66525852622930   14.21651110489889   17.51538923445665
C         9.78007563290056   14.90895415476971   18.35771008965421
H        10.19012505010030   15.46889053296974   19.18671455292092
C         8.42911449288239   14.88895205942972   18.13445521918153
H         7.75483022413691   15.42367832470919   18.78671975069329
C         7.92243112566789   14.18500434277842   17.03644981225696
H         6.85931901045389   14.19662797041352   16.84114188791221
C         8.76036878738580   13.49241670704958   16.20415927632915
H         8.34537052024307   12.99022769564004   15.34104808086447
C        10.15465602583475   13.46086884511293   16.42673435309251

