77
CSD_code = MOZLIW | q = 0 | S = 0 | Stoichiometry = C24H38HgN2O10S2 | MND = 8
Hg        4.76628290526314    7.89103305466719    7.07732921508196
S         3.60210962388038    8.03082333057141    9.19312838435552
C         4.95024552410293    8.01664817151451   10.15250195510623
N         5.84523210117838    7.99777044665170   10.87687767543658
S         5.56729381141670    7.49002170495118    4.84438726834647
C         5.74336778569305    9.08573707851366    4.44286753500414
N         5.88266083689243   10.17819910200060    4.10674068896944
C         8.01384208194932    7.00548725218313    7.76503999308723
H         8.07859151613902    7.00587474930132    6.66865411455365
H         8.83098779613741    6.40690411484399    8.17322109308510
C         8.11149089932620    8.43614429368828    8.28292274666645
H         7.90272546256390    8.44204401104866    9.36149987416382
H         9.11492153129408    8.84614506105597    8.09651849060219
C         6.98362369666141   10.50528476612408    8.14868152326520
H         7.95593456137529   11.01690145429436    8.19139181547015
H         6.56946214143372   10.43301788191352    9.16474762599573
C         6.04298197742980   11.29692582022166    7.25106419708223
H         5.98099418207591   12.33509303186668    7.60988713502066
H         6.42348497795044   11.28799835932286    6.22085247189836
C         3.84195563108417   11.35210633233580    6.43115193120934
H         4.22683976437314   11.34769648173456    5.40268570304922
H         3.69577962859530   12.39063511611737    6.76399564910729
C         2.51161392436535   10.61429640033954    6.47970856946230
H         2.18468509340425   10.50444927011917    7.52402799609149
H         1.75670539913130   11.18878334214892    5.92343142986621
C         1.47322563263895    8.61192069318241    5.79780178271710
H         0.77962048779218    9.11894508526536    5.11056214187068
H         1.00370864801940    8.52864975148579    6.78884244446270
C         1.78854412553273    7.21496904901604    5.27916026226139
H         0.85479229037210    6.69750505675802    5.01344187623562
H         2.42692174179425    7.28975047521416    4.38810222689562
C         2.76816320854938    5.17512233204836    5.96681663388148
H         3.48860184561462    5.14718355208882    5.13810314085075
H         1.85189644523961    4.64460886084633    5.66765955581777
C         3.37277396840689    4.49586244349201    7.19087085412703
H         2.79456653168306    4.78870887755528    8.07752624652742
H         3.31143747318533    3.40739840102367    7.05517685664811
C         5.26504314032802    4.69651457753602    8.63193762211606
H         4.72608775041866    5.34037758870842    9.34228447705860
C         6.73302539913013    5.13993523936786    8.58671495162525
H         7.26701567193747    4.52115440863742    7.85122933668324
C         7.36168263023657    4.99482586773702    9.97813882534805
H         8.41299538084029    5.28167197302552    9.93532446132123
H         6.85027853412528    5.67772829428329   10.65951302826209
C         7.26823037582992    3.56103393441720   10.49419338500739
H         7.62089534428986    3.53533063520924   11.53316381466149
C         5.81406078173636    3.07265910745615   10.48696307800280
H         5.80310044635711    2.01006299263119   10.75636702359607
C         5.18192109852273    3.24238151737562    9.10745101621083
H         4.13965587505227    2.92763217139862    9.15475844528881
H         5.70532662834325    2.60648789921698    8.38921639251580
C         8.19374523631121    2.64663053629691    9.70560330431886
C         8.77397361149572    0.39534267686440    9.29879638908342
H         9.03429884498670    0.75026160961422    8.29646271399015
H         8.17113935219517   -0.51234175457401    9.22974393034263
C        10.03317510663029    0.15875695092669   10.11860281765612
H        10.62712325743893   -0.62408598575552    9.65610163959868
H         9.77203177140435   -0.14249161172736   11.13008839168322
H        10.62408439802299    1.07019687915313   10.16221560349322
C         5.06374067728704    3.79472351212825   11.60586492439137
C         3.08388525021011    4.90195239852118   12.22345409314217
H         3.71824029856351    5.69259536778115   12.63717534950719
H         2.80922296153797    4.21895688397075   13.03488785939015
C         1.85901237883882    5.47747467599398   11.53952096660611
H         1.25438513616883    6.00884905849345   12.26834451792786
H         1.26528127998680    4.68153561301558   11.09703937685614
H         2.15743758959401    6.17323647933505   10.75926681319517
O         6.75285247024286    6.49227220198893    8.16422934521732
O         7.14627936769433    9.21444015553096    7.59957729965566
O         4.75900728080694   10.70429925385980    7.29112540703073
O         2.67655633336185    9.34270607826860    5.88617250745216
O         2.44870031856789    6.50791800564786    6.30789824668483
O         4.72252632986375    4.89217987043246    7.33161841877681
O         9.07918456722157    3.03347818742947    8.98827758074917
O         7.92068772438912    1.35943910123484    9.92370615577650
O         5.53214516420846    3.97452606815052   12.69918148698135
O         3.84159898319979    4.17120637483678   11.25010989863273

