139
CSD_code = MOZMAR | q = 0 | S = 0 | Stoichiometry = C72H62P4Ru | MND = 6
C         8.76557624710195   11.33984465377007   11.85998263129737
C         8.51918306202826   12.70119115607551   12.03568960708318
H         8.93982416269682   13.20567647797624   12.89614850614908
C         7.77149077068513   13.40908302337837   11.11763679162859
H         7.60183593571722   14.46603933472107   11.26664198878604
C         7.24756233787166   12.76512420904659   10.00646207890935
H         6.66928033921734   13.31715938904646    9.27962400700215
C         7.46414647021009   11.41022313308457    9.83808585804024
H         7.04835536293596   10.89679314062781    8.98221106877045
C         8.21365755377003   10.69605313333959   10.76086568654462
H         8.35750402914814    9.63536074677553   10.61056384749051
C         9.52800612234827    8.78550147175806   12.78810475981985
C        10.02513036057653    8.27019387305708   11.59413393152361
H        10.56726359036011    8.91858319046043   10.92066133537978
C         9.84106123952446    6.94198924840491   11.26076696271865
H        10.21833743145510    6.56808254572656   10.31989236375397
C         9.18112453486139    6.09495421345696   12.13447414614781
H         9.04138332218428    5.05417707826124   11.88143465559943
C         8.70342581132185    6.58997541994412   13.33548312507111
H         8.18926346615238    5.93352253293464   14.02361655716470
C         8.87026885252468    7.92410878097320   13.66095955177417
H         8.47350310077998    8.29357791765997   14.59620439608847
C         8.60199959981745   10.81090693071118   14.50276202348000
C         7.25562693911080   10.53620613740310   14.26833417016072
H         6.94447400890586   10.15628586242009   13.30419042664256
C         6.32029719318078   10.74444228541537   15.26333838221109
H         5.27856116975428   10.52845575593548   15.07326009844482
C         6.71254267089553   11.23223401038174   16.50078589248052
H         5.97648543380636   11.39701722596969   17.27432938724073
C         8.04694881315003   11.51106053137834   16.73818285659059
H         8.36359926119450   11.89667530213018   17.69689099863299
C         8.98359178772184   11.30067013550763   15.74210431434947
H        10.02565769273910   11.53025397784270   15.92110685234536
C        13.03977086497978    8.70407610205314   11.80889575091508
C        12.74484185772138    8.05523693577841   13.00022626235992
H        12.54731673472010    8.64925464476434   13.88199452954612
C        12.68166163529175    6.67674904964970   13.06918879565998
H        12.45165104358693    6.19668449473033   14.00977087514791
C        12.90420864909157    5.92403674079477   11.92961757302852
H        12.85303501866443    4.84578054485689   11.97100058632175
C        13.18664915519132    6.55980887188246   10.73079931461843
H        13.35687720683116    5.97490292571402    9.83751291894678
C        13.25805181254686    7.93948237790009   10.66506960115990
H        13.48005859771568    8.42022424014453    9.72227202985512
C        13.02413818087259   10.84377217645142   10.05184907471301
C        11.73877289857081   10.86374021940196    9.51790579608514
H        10.88693225640240   10.81842158236516   10.18447083685602
C        11.53606192646692   10.97098023495855    8.15625854352612
H        10.52944375115582   10.97033859603859    7.76214936374946
C        12.62181064882199   11.08680914137116    7.30402313297501
H        12.47043685520903   11.16843236671447    6.23730247555416
C        13.90248472212216   11.11327005991399    7.82810217941526
H        14.75353803337892   11.22385927546818    7.17109931226087
C        14.10721125735113   10.98788866721383    9.19104308087064
H        15.11569682270759   11.00245820919495    9.57846057973794
C        15.01660025872915   10.63049363847855   11.97825064069909
C        15.89171749725760    9.57908965839913   11.72109163894749
H        15.51537740664859    8.60395245784764   11.44788221543841
C        17.25716647302238    9.77835564936558   11.81863287843327
H        17.92966322498617    8.95639697075408   11.61577570242607
C        17.76841145560397   11.01617126239691   12.17375593671181
H        18.83647712095681   11.15872428137137   12.25117654369948
C        16.90409008676155   12.06622930820786   12.43111738260057
H        17.28890881475488   13.03626582053365   12.71332902237893
C        15.54212422621845   11.86421087889198   12.33155970384784
H        14.84592681162999   12.66810733318870   12.53172246457180
C        13.17010115817064   14.09687279369385   10.96137259679289
C        12.21678392388308   13.89493202318887    9.96475423359363
H        11.20806359730374   13.61706728499406   10.24379678247587
C        12.54068368629071   14.06505676994474    8.63311639957774
H        11.78108108868694   13.93322239043081    7.87632090455220
C        13.83434477899041   14.40062312670360    8.26964673719204
H        14.08993665310700   14.52682627357954    7.22770890604662
C        14.79523888063856   14.57511345597618    9.24904518956054
H        15.80834096500440   14.83335842002081    8.97520258828711
C        14.46539583711507   14.43727446676937   10.58593655297350
H        15.22692089143624   14.61051740076430   11.33317463008044
C        11.28988225485006   15.14182648023658   12.78904157489666
C        10.95665305383337   15.99523525072697   11.74053424798223
H        11.49935508675736   15.96176729099986   10.80714852070902
C         9.92007780179160   16.90407270991938   11.86977531038942
H         9.67253871896616   17.54666051089516   11.03629401599713
C         9.20830082679459   16.99595069681363   13.05216329473047
H         8.39706380996996   17.70317397741840   13.14755167022925
C         9.55217889055504   16.17647679383424   14.11351865962382
H         9.01482268247232   16.24345387178752   15.04889670845486
C        10.58200830908172   15.26390465963504   13.98195759540168
H        10.82380738933615   14.62454715651831   14.81863753545201
C        13.95160193380603   15.02573988347939   13.44699579471286
C        13.96096528956051   16.38539421824835   13.14617984627337
H        13.20772937933114   16.79926217198358   12.49186661792267
C        14.93400654272619   17.21167295316240   13.67576428513382
H        14.92933135978469   18.26494023338705   13.43378983277827
C        15.91287022995923   16.69772443194936   14.51186290951805
H        16.67021472303255   17.34855993954198   14.92414045578787
C        15.91334715561693   15.34764216042265   14.81362098941193
H        16.67150916216209   14.93069922222462   15.46119840581161
C        14.93886731990483   14.52084465705404   14.28353716301540
H        14.94618733667718   13.46750766122984   14.52718105879986
C        12.26859266363618   12.35093067389784   16.67540383934194
C        12.47764991634515   13.70894413194136   16.45383701680532
H        12.89055009190940   14.02520514270865   15.50499133951328
C        12.16051209464743   14.64890413744075   17.41573499392891
H        12.33904579369906   15.69700380882513   17.22024454370295
C        11.60734094622797   14.24320868686889   18.61895469366752
H        11.35084858037189   14.97237464126900   19.37361961692644
C        11.37652332318268   12.89703404645148   18.84404407749566
H        10.93599633766109   12.57314967333598   19.77657546897277
C        11.70400371133090   11.95457423546180   17.88427421381710
H        11.50544669151226   10.91160940885091   18.08417093760990
C        14.52928572204730   11.11215087299658   15.55918245114120
C        15.26121458315773   11.98959375750982   16.35211969562942
H        14.76789638656246   12.80268690272217   16.86677791912527
C        16.62730889592323   11.81941800597039   16.50125483776707
H        17.18484195919692   12.50802867263026   17.12075742650356
C        17.27520400461812   10.76676485147651   15.87919022206931
H        18.33983022980174   10.63407681629420   16.00481355156337
C        16.54904641862969    9.87506311265206   15.10716671888188
H        17.04218980856862    9.03859027150333   14.63404400897653
C        15.18943602455253   10.05210882896203   14.94382208549875
H        14.62376533383398    9.34788967844932   14.34758476301449
C        12.36220388934803    9.62469894967992   16.19847358157012
C        13.17900721920372    9.17401188387126   17.23454628670236
H        14.04499369614018    9.74651019502641   17.53418191105987
C        12.88193913326915    7.99576458498079   17.89296826971377
H        13.52453654498949    7.65591373950118   18.69264837924216
C        11.76873133293975    7.25137915467698   17.53528198204224
H        11.54666544047089    6.32776998641263   18.04983677152387
C        10.94350117551319    7.69926043729173   16.51892714175500
H        10.07194577438977    7.12923735591571   16.23190219775941
C        11.24220183010208    8.87921571009928   15.86281921327666
H        10.60586013854509    9.23354129688061   15.06081269956528
P         9.82940760587162   10.56720528079151   13.15531841399315
P        13.18153580032514   10.53795028781904   11.85882644060518
P        12.66323578463325   13.90359774292980   12.71698902752062
P        12.70599392680474   11.20455272942222   15.29929308392560
Ru       11.81670884134211   11.78566383045989   13.23821200464549
H        10.85171619575734   12.63502695611758   14.05389084536004
H        11.18039345557226   12.29194063972216   11.94973931138142

