105
CSD_code = MOZNIA | q = 0 | S = 0 | Stoichiometry = C54H45Cl2P3Ru | MND = 5
Ru       13.22206270954679   13.12108951150201   11.00155754020375
Cl       12.86890481186530   15.02891003514900    9.63907582152090
Cl       13.88581580870636   10.85506398112347   11.22112392770720
P        15.42751261576880   13.72274247687935   11.36691384165003
P        12.31734129353543   13.85449524531400   12.93889088459581
P        11.31631562419178   12.16411482574100   10.09544604806389
C        16.04824663958733   15.37504534235823   11.84249283833122
C        17.24525248111547   15.55430064726990   12.52703367884480
H        17.83023922524817   14.70129270083264   12.83830521442493
C        17.68975126371113   16.83009086517405   12.82337572245943
H        18.62264368146170   16.96017385446732   13.35338550923248
C        16.94784121772739   17.93588881849470   12.44458986939382
H        17.30236819662926   18.92986078678927   12.67583359694380
C        15.74823929132793   17.76200714095936   11.77572944930754
H        15.15924711326242   18.61912928791784   11.48420223884786
C        15.29672575888213   16.48964466487928   11.47935735392819
H        14.35233548488340   16.35632024860466   10.96994250592542
C        16.49802754188015   12.60526977784028   12.32777852019881
C        15.96126245101809   11.95579364338209   13.43187093126729
H        14.91330099677248   12.08907852652732   13.66515716211191
C        16.74620486088449   11.11550759317680   14.20004363661870
H        16.31538037500764   10.60996964647619   15.05199366438793
C        18.07573810962745   10.91745012622761   13.86854793699382
H        18.69059964410187   10.25694339164839   14.46247908403753
C        18.61719058886315   11.55973052282530   12.76606642010989
H        19.65334174327623   11.40167255815143   12.50264969915633
C        17.83560111358587   12.40138887077717   11.99638291179317
H        18.26110227596024   12.89502464186606   11.13218961143454
C        16.12635719337013   13.54467552835585    9.68752906970949
C        16.28501112271445   14.63701247658689    8.84011784581593
H        16.05544951841349   15.63220453944607    9.19380844877469
C        16.73086580998989   14.44562615057401    7.54412581674413
H        16.85188829139506   15.29702248795070    6.89030252178412
C        17.01860490763566   13.17129463580451    7.08405176721190
H        17.36961816421146   13.02833132083338    6.07192170385930
C        16.84814605671411   12.07833547576717    7.91989511409035
H        17.06202059466290   11.08075590467844    7.56292707247360
C        16.39555254952952   12.25933184506883    9.21354668686121
H        16.24633000137708   11.40476960196524    9.86264702410680
C        12.31698213847936   12.80191334629725   14.43588284063678
C        12.55370490450608   11.43611114075587   14.34112610783487
H        12.76150064890619   10.99510230268318   13.37603696358806
C        12.53369722052282   10.64558272549018   15.47794956726322
H        12.72070331741977    9.58524706034394   15.39276608769392
C        12.27754675479776   11.21315771583448   16.71406952713426
H        12.26380233059142   10.59793646605279   17.60205675772033
C        12.03955000561435   12.57598420868236   16.81375933164830
H        11.83865578761296   13.02107059507996   17.77764788609419
C        12.05814607475886   13.36971375032421   15.68276063091243
H        11.87082978991570   14.43235225369762   15.75909117656064
C        13.10485651315568   15.34833077728375   13.64478845673668
C        14.31199939322591   15.16740154473661   14.31865178159305
H        14.73033834362421   14.17302650968740   14.40473134636403
C        14.96494332659380   16.24127355121518   14.89107999099253
H        15.89346435285317   16.08570938886548   15.42045894312425
C        14.43209683521465   17.51484562464160   14.77864834977272
H        14.94274119898747   18.35631120405165   15.22294720638325
C        13.24349658320998   17.70434887958570   14.09526219209180
H        12.82572006656550   18.69646456406686   14.00377363497009
C        12.57806454116509   16.62925067146400   13.53195064023281
H        11.64537941911522   16.78922653587319   13.01260688381498
C        10.56707663198912   14.36930054271473   12.82440054906457
C        10.23463728045945   15.26495954685793   11.80877642772527
H        10.99846585188361   15.57973458892955   11.10922414870803
C         8.93988489257718   15.73363536812994   11.68782473646243
H         8.69659199034250   16.44152505366902   10.90962492193674
C         7.95562859909485   15.28423456658738   12.55209007716812
H         6.94137728961746   15.64145088725161   12.45110385099221
C         8.27276065095949   14.36872948718153   13.54092571720531
H         7.50500725663006   14.00671859103539   14.20963650292023
C         9.57283078252662   13.91703204953826   13.68609661794819
H         9.80875341351634   13.21519203178509   14.47386758604980
C        11.78309410837875   11.72850945258046    8.39180397375481
C        13.09279025548853   11.94507734067605    7.98151420347867
H        13.82577570145492   12.35494118339801    8.68049856661505
C        13.48077059167891   11.65047948033678    6.68693590910938
H        14.50043618737932   11.82951041792154    6.37848217142176
C        12.55722755684240   11.13327424337917    5.79538972146881
H        12.85581510915846   10.90168140036552    4.78338808771301
C        11.24679182561149   10.91645608565691    6.19608529526875
H        10.52789648557106   10.51578903735692    5.49596340756526
C        10.85535898136918   11.21596760306297    7.48646526080111
H         9.83177492833514   11.06013128832493    7.80116179286069
C         9.71315953347440   12.96744095809182    9.75098271682784
C         9.71490612525971   14.01047342143707    8.82685740291124
H        10.64683093375515   14.32647932064311    8.37938802776435
C         8.53593997710822   14.64658350287011    8.49153075974085
H         8.54724185494664   15.45186353843847    7.77148700181261
C         7.34318359938443   14.25150121738241    9.07545985507138
H         6.41962226216626   14.74578935905238    8.81096959960841
C         7.33777088496983   13.22062036147237    9.99882094500501
H         6.41015122137395   12.90807709960012   10.45648317987553
C         8.51543790958014   12.57839497401113   10.33807118522551
H         8.49454850161091   11.76924285901738   11.05340284785090
C        10.80377709252624   10.58600054772257   10.83970387355829
C        10.89797046991645    9.35675280033838   10.20164654632468
H        11.27548547400323    9.29389256993364    9.19094868363968
C        10.52750688462334    8.20464479618862   10.87342580963330
H        10.60717025890907    7.24860978801337   10.37631112961108
C        10.06785976044881    8.26940314780231   12.17783633188911
H         9.78523837884243    7.36469613180145   12.69615336449861
C         9.98572312563930    9.49317560843231   12.82278704924820
H         9.64432891175155    9.54873300371262   13.84669180421662
C        10.35676500244894   10.64509327258107   12.15714728591872
H        10.32147879117884   11.60778095854663   12.65410007915817

