50
CSD_code = MOZRIC | q = 0 | S = 0 | Stoichiometry = C23H21MnN2O3 | MND = 5
Mn        4.55199659118907    0.41691300749476   16.95986972980601
N         6.32218409994359   -0.95068803334261   17.11093234868735
N         3.64089947952653   -1.18574463908825   16.93987548881379
O         5.09187232721530    0.70230166467448   15.25292646646343
O         5.15608711605635    1.13444675226539   18.46614297216992
O         3.09565405957903    1.45505838360018   16.81308723395306
C         4.37816823986221   -2.44379467517981   17.04025600889215
H         3.90799208610749   -3.22090940294843   16.42592363191953
H         4.36193138966245   -2.78397846499249   18.08430691384384
C         5.81189383302377   -2.21686909605957   16.56437269832095
H         6.45657113631363   -3.05842401688176   16.85460411985988
H         5.80980074442306   -2.13765513043987   15.47444191236467
C         6.75629212239531   -1.17451554261095   18.50197755852700
H         5.91421075380542   -1.62113751272709   19.04382095325416
H         7.59587352351032   -1.88770195369400   18.51565646159264
C         7.15219093861288    0.08601251191198   19.21427153108854
C         8.33018839612561    0.18212718621322   19.93410237188125
H         9.01089913889849   -0.65839882936540   19.94889902936155
C         8.64148274305507    1.33279021110020   20.63827003149715
H         9.56335564773626    1.39302680042304   21.19587169985060
C         7.76001808194911    2.40289164382907   20.62403239713655
H         7.99471521349329    3.30137051873281   21.17561604539139
C         6.58522661289827    2.33285389736672   19.90603585403036
H         5.89412986005214    3.16186158515704   19.88018467611775
C         6.25834210850583    1.17746523424804   19.17939802434810
C         7.19134507401826   -0.35842506632806   14.85307233128692
C         8.11115798776572   -0.80721724990846   13.91939994900671
H         9.03366509692307   -1.25472940667388   14.26425348307321
C         7.87529728978003   -0.68770987073542   12.56078230200663
H         8.60722815631685   -1.04117007824593   11.85115107845577
C         6.69179354445528   -0.11366008973870   12.12273853196762
H         6.49586331238935   -0.02051067683452   11.06460727499773
C         5.75842816537379    0.33668087371221   13.03054435230219
H         4.83228870636664    0.78673654793494   12.70587600719780
C         5.98406014405116    0.23327627901269   14.41410078367615
C         2.32638129014180   -1.30738470192393   16.85515484873059
H         1.90329780692916   -2.31162654379527   16.85719707665240
C         1.41153819613638   -0.24008678730198   16.76523392681796
C         1.85503645297773    1.12769267361796   16.75782031509066
C         0.86737212051532    2.14200898633135   16.67225667402394
H         1.21143906154091    3.16561024203730   16.66991316633268
C        -0.46357764528794    1.83979932551860   16.59440588254384
H        -1.19418160365757    2.63282027073525   16.52944871635998
C        -0.89148954953985    0.50415602241581   16.59525908928429
H        -1.94569813641331    0.28015753702569   16.53023588662038
C         0.02629806108064   -0.50503325306525   16.67724817778837
H        -0.29830334883576   -1.53660977890388   16.67791215406537
C         7.47812319311988   -0.47684946173407   16.32574018455450
H         7.75936333187907    0.50401646591452   16.73175247100313
H         8.32819704803751   -1.16234435875601   16.47071917698986

