47
CSD_code = MOZTIF | q = 0 | S = 0 | Stoichiometry = C18H16N6NiO6 | MND = 6
Ni        7.12214275860992    2.60874709068538    2.98290182423793
N         8.73807443342589   -1.24647344447671    3.42762839299996
H         9.03971559509335   -1.41219922453396    2.47408890781669
N         8.81668101492109    3.91879086624799    2.59196367819092
N        10.38384260643456    4.94882454288997    1.46674434380505
H        10.92148621832519    5.29906042580003    0.69071939425380
O         7.47348682669209    2.65122171417674    4.76652238257684
O         7.73656368337011    1.88832767520051    6.80893140761709
O         8.55775621875761    0.89673191366427    2.81132047768946
C         8.44435643361527    0.07794874998565    3.72575121657697
C         8.04055056931272    0.31599671596392    5.08477771706403
C         7.94083695881005   -0.72428233257086    5.96141939091629
H         7.64121325928915   -0.49993436660669    6.97518573619600
C         8.22603352083570   -2.05188248398290    5.57397603987500
H         8.13527855720309   -2.86358243256584    6.27590704219123
C         8.63141460706824   -2.27793157654719    4.29840928795653
H         8.88200648193495   -3.25811786375097    3.92069181715732
C         7.72346492244689    1.72980443715946    5.59309134082787
C         9.26183256572337    4.20443664461521    1.39503633313755
H         8.79725344185702    3.89751858931023    0.47909115407962
C         9.67629664548136    4.49243329691542    3.47641857305963
H         9.52715556146012    4.40058422891288    4.53325051461198
C        10.66108794975696    5.14020915870211    2.79114383580505
H        11.50860899586466    5.70271404266493    3.12411854441410
N         5.50825199386894   -1.24703979243068    2.53843863965305
H         5.20654201432480   -1.41288874652786    3.49193408635328
N         5.42848642288257    3.91901919688161    3.37370799584505
N         3.86111113614548    4.94893821383075    4.49870725981377
H         3.32277465981989    5.29827320761212    5.27466056675574
O         6.77063725317919    2.65133276322474    1.19931812898519
O         6.50727545367484    1.88838166892078   -0.84303097443704
O         5.68600208690168    0.89652572244473    3.15430751525583
C         5.80061279964402    0.07765206435348    2.24012329049671
C         6.20469212330608    0.31582415289023    0.88117852129106
C         6.30565827825471   -0.72451437152144    0.00476312851054
H         6.60536104388210   -0.50009396593035   -1.00896246977076
C         6.02170270036394   -2.05233853593372    0.39239133185267
H         6.11346983682109   -2.86408146984498   -0.30935930675769
C         5.61626404385118   -2.27856754490136    1.66790241012412
H         5.36666075349013   -3.25895031230356    2.04577074289406
C         6.52093604147914    1.72978665555010    0.37278916961660
C         4.98181483488047    4.20261605809934    4.57056528614050
H         5.44446943088838    3.89300627848514    5.48658042658735
C         4.57119065994016    4.49595994850153    2.48914379579256
H         4.72186828867236    4.40618036066974    1.43235319703148
C         3.58632896150267    5.14375743063747    3.17429796051854
H         2.74024935594370    5.70837464943723    2.84122994438942

