52
CSD_code = MOZWAA | q = 0 | S = 0 | Stoichiometry = C20H20MnN3O8 | MND = 6
Mn        3.68456237012108    2.75263615778946    8.27120716227793
N         4.73051302664770    3.82937972428406    9.56213713368104
N         6.03695679309037    3.48312423776652    9.69060528820508
N         6.40593477102913   -0.62074966701833    5.92693460518525
O         2.25419217286533    3.48920229111679    8.92542938301087
O         5.40701462720693    1.94597022504546    8.17455663409814
O         7.79546310940011    1.09656992004206    7.65186600395056
O         7.04628127441196   -1.17848526511429    6.78818476010898
O         5.46809124302453   -1.13312399100107    5.33569772049282
O         4.05280233496408    4.07186602173921    6.91619501311588
O         3.05143813603558    1.55516407660552    6.98925161343391
O         3.27222220723541    1.02266008777909    9.74362463978134
H         2.40598678571459    0.70601755387775    9.46271036479947
H         3.90958124914271    0.35567871366433    9.45851322241958
C         1.98485490364645    4.65783276080223    9.43913768743723
C         2.99989878399561    5.39993074872391   10.11374262663063
C         2.64942904357105    6.60293034650476   10.74128984486305
H         3.41593727249574    7.14913057353339   11.27179840132648
C         1.36510769359864    7.09213318681709   10.68467201286656
H         1.11701741241112    8.02556958396129   11.16624473799919
C         0.38149207426607    6.37984189741265   10.00140116665266
H        -0.62532771650801    6.76709545272941    9.95037309056078
C         0.68109352301759    5.18021097916787    9.39804157484560
H        -0.07446778198623    4.61529395579030    8.87195643393789
C         4.34210059352137    4.91918501775449   10.15290875212202
H         5.08333685938008    5.49116830633475   10.70481388331761
C         6.31140970153287    2.48616881892400    8.90017293702288
C         7.72067054992101    1.93266643581103    8.78534292777201
H         8.45421515723130    2.74591925514839    8.76813241034980
H         7.94072715937615    1.28288836894497    9.63661557656409
C         7.34966024981643    1.59268795622225    6.48224513297100
C         6.72352019081980    0.72649432396631    5.56705238184574
C         6.30395551179140    1.18403589676243    4.32068724160594
H         5.82639616554824    0.48165548597715    3.65439370350217
C         6.49565568255392    2.49765599743294    3.95916727124031
H         6.18779501591560    2.84361093887206    2.98537674888345
C         7.07647750355497    3.37242556978981    4.86848750275921
H         7.21538232105496    4.41001338910970    4.60554952889233
C         7.48617757847395    2.93433185447288    6.10931638128374
H         7.92360212628654    3.63620953945233    6.80107169657815
C         4.07479459644475    5.21601927097815    4.84429980084584
H         4.69885795657777    5.90488119358094    5.40666804537891
H         3.12943298700655    5.70767645334038    4.61985741066689
H         4.55580936941721    4.95213763618844    3.90724062868642
C         3.80535604946074    3.98359397908288    5.67888749428383
C         3.31267349923001    2.83842452137097    5.03509892117598
H         3.20448767433422    2.85889170180432    3.96274209928636
C         2.98574858001103    1.67207389880776    5.72249494294968
C         2.54888087130283    0.45030197043847    4.95548448953038
H         1.69495486912324   -0.01119436627444    5.44690932758952
H         3.36465520433321   -0.27446825898288    4.96066013751168
H         2.29579066657558    0.69616527262585    3.92965150370040

