63
CSD_code = MOZXEG | q = 1 | S = 0 | Stoichiometry = C35H22F2N3Pt(1+) | MND = 4
Pt       16.51141587381078   13.35556045857869    7.06951439652262
F        20.00547526363327   19.26262973475364    5.93218567501717
F        13.17407625070954    7.53819884693529    5.95573804437472
N        16.41168870157809   11.96686791904986    5.64862248930637
N        17.74768893272448   14.28494737688562    5.51721369775138
N        16.60016253152047   14.79849985867905    8.43927626720888
C        17.18653767918764   12.16757404866422    4.62743564432426
C        17.93770806196617   13.44125077253599    4.56181443939285
C        17.41914231098539   11.45183187378598    3.38561083951254
C        16.97734770797100   10.27234761652287    2.82648035756823
C        17.41703344548930    9.93113800914834    1.53643259661978
C        18.26111564339096   10.72994504494040    0.80228061193728
C        18.71949650358734   11.95721401217732    1.33153384613670
C        19.55056147186069   12.90620585975360    0.69489786704688
C        19.87643435300586   14.08065026493134    1.33039719442021
C        19.42427541373782   14.39455606974659    2.62308914057207
C        18.63056473663054   13.48361287332007    3.28426289280885
C        18.28672603742577   12.27709737473821    2.62235585227775
C        18.34951792587999   15.54086092731260    5.55660317291130
C        19.73744220107081   15.68910972991427    5.56216451168838
C        20.29814548154297   16.94430426861764    5.69649770950786
C        19.46328025675491   18.04530892857406    5.80166171235044
C        18.08246162535751   17.92088698173691    5.79277571380312
C        17.52761514951795   16.66235704740888    5.68754460667315
C        15.60114287213266   10.81578959723036    5.70140018125612
C        16.16098445908815    9.54894378063708    5.85296975402032
C        15.34124419547283    8.43969920195918    5.94837214739915
C        13.96870722684360    8.61169010150753    5.86821671219668
C        13.39502871785299    9.86355523578914    5.70830365484285
C        14.21714853970871   10.97029321330856    5.63792979833172
C        15.46464217684925   14.90206137945606    9.17330435420158
C        15.23215667158369   16.03244789364926    9.95502522234896
C        16.19301706528154   17.02302664462460   10.03063025044723
C        17.39587198955175   16.84352909279638    9.36028901685009
C        17.55207246009297   15.71977200945558    8.57063891890540
C        14.66666480411086   13.68070595592377    9.18030512929233
C        15.21371296755555   12.62075181646442    8.41735708741888
C        14.71347202524737   11.34553003525794    8.62849161289399
C        13.64175619746846   11.13471448807901    9.48739267641597
C        13.04372970714167   12.19752220193842   10.14279841715423
C        13.57032820353853   13.46915791434093   10.01335279939101
H        16.30367163997086    9.61046050006428    3.34658129113541
H        17.06844900761305    9.00241855230043    1.11125960797969
H        18.57211047839855   10.43000773094868   -0.18671792666602
H        19.91942955241599   12.70499107571085   -0.29923122110188
H        20.50231079425842   14.79875628539653    0.82298313053947
H        19.70153470036316   15.33881647815175    3.06500345881375
H        20.36811812426555   14.81462362348821    5.49782167672694
H        21.36770811107536   17.07837699308386    5.71856412643015
H        17.46491312550422   18.80043912277682    5.87529700505008
H        16.45460620451569   16.53282247045926    5.68556074081819
H        17.23306588654079    9.44248706147138    5.92361762621473
H        15.75142083832232    7.45183068657190    6.08340789348678
H        12.32295002263942    9.95794575016599    5.65187116385748
H        13.79999584693384   11.96114587880605    5.53150863543397
H        14.30922473179594   16.12517391774010   10.50285993705331
H        16.02290772792777   17.90649267977478   10.62569623807498
H        18.19506241852198   17.56121734768225    9.44161206917413
H        18.48029300566114   15.54926445182627    8.04329227001065
H        15.16372035539230   10.48865247383062    8.15242580229414
H        13.27221264051071   10.13192502354246    9.63864320772669
H        12.19070106423548   12.02981426382730   10.78153984314062
H        13.13549988426292   14.28619117124681   10.56773641070249

