42
CSD_code = MOZYUX | q = 0 | S = 0 | Stoichiometry = C19H14Br3N2O3Re | MND = 6
Re       13.70484600535610    5.01093035744155   -0.94883370330219
Br       13.86686183971556    2.44152590821825   -0.84384606811787
Br       18.36917545769397    4.93627498751106    4.64728916645066
Br        8.25595524745352    3.89469161356957   -5.66415635496681
O        16.78939591435045    5.01719296792154   -0.70673351208682
O        13.55281058989994    4.68096191571920   -4.02150592509552
O        13.43847958633339    8.08543208750343   -1.00316498459360
N        13.41545952414387    4.84428468976225    1.15011228946052
N        11.62626010842208    4.65782545636600   -0.68007030901641
C        15.65968906474599    5.07585068571502   -0.86256294172374
C        13.66853784783684    4.86850577063382   -2.90105160312598
C        13.55241468967690    6.94442237418488   -0.99761970560526
C        12.23533030048102    4.49103724106172    1.55917980024191
C        11.22231964105546    4.38643732654085    0.52334477338027
C        11.88701212741826    4.19579661724061    2.98073272117733
H        12.71457901397346    4.43709110940468    3.64380041838649
H        11.64288126242808    3.13982198834588    3.09663303802392
H        11.01526049706733    4.77474304828520    3.28222966394551
C         9.82804289423225    3.98592874666689    0.87669598650246
H         9.44888427384030    4.61501486892158    1.68070600257811
H         9.80978649581709    2.95297250693885    1.22411871823744
H         9.16615863573557    4.07677839650723    0.01858101271489
C        14.52442038339437    4.86668661783025    2.01215750045163
C        14.98646844247809    3.69113584539065    2.60288221026688
H        14.47532913816713    2.75842327981597    2.41485562156085
C        16.13384736653382    3.70892691999341    3.37156032398941
H        16.50494349726280    2.79692932978898    3.81218570717383
C        16.80313908192850    4.90540169229188    3.56761567735349
C        16.35427990445277    6.08218999902457    2.98733656608164
H        16.89105943114846    7.00490340946464    3.14224810463482
C        15.22199287294492    6.05966650545651    2.19943162828532
H        14.86860588737757    6.96350592140060    1.72392721244332
C        10.79578584239154    4.47992695242841   -1.79907271858384
C        10.33373768457266    3.21045615790229   -2.14447255096062
H        10.59909994306696    2.35816962281260   -1.53640258639376
C         9.59418770526348    3.03449581405004   -3.29765102184504
H         9.25279591766748    2.05024222110396   -3.57747203047519
C         9.29832733843868    4.13090172798031   -4.09035826867760
C         9.75150852669737    5.39893177221862   -3.75921586385063
H         9.52052598571023    6.24189975613454   -4.39128152903525
C        10.51081361973585    5.57055158698124   -2.62020298812025
H        10.88769041308927    6.54843420347396   -2.35644947776550

