49
CSD_code = MOZYAB | q = 0 | S = 0 | Stoichiometry = C23H21ClNNiOP | MND = 4
Ni        1.92288716148145    5.83944822155406    4.90898505367852
Cl        1.72627947493948    7.84563041086951    5.37095766464896
O         1.13163500436084    5.25904911017168    6.54156584991152
C         1.19257912643518    4.09662026580339    7.01009688680556
C         1.89222902819824    3.03098785633650    6.42720364070226
H         2.01773205892929    2.13704165138713    7.01828715979088
C         2.43515073800957    3.03047437657099    5.14585889066202
C         0.49762437516675    3.84248593238516    8.32826300811226
H        -0.05878907921786    4.72807106097478    8.62302282262956
H         1.23817912595479    3.61541516973626    9.09252118332755
H        -0.17811083873422    2.99451567590228    8.24341442747271
C         3.27202082686713    1.81972039611013    4.80522939988680
H         2.64505338123032    0.95084790923946    4.61080043436444
H         3.90113272876692    1.58333987036096    5.66180751165385
H         3.90877213287154    1.99846063628011    3.94258274249816
N         2.27880098986427    4.03777517610645    4.28729397582695
C         2.52822870468366    3.90655723718355    2.92424651529053
C         2.29900682273091    2.73452323535738    2.19429836984506
H         1.86676144692758    1.87230229466590    2.67621948687433
C         2.56779418669227    2.68863327415788    0.83971408181306
H         2.38134865881932    1.77285667715612    0.29782871117732
C         3.05688814246124    3.79754812491410    0.16611925934111
H         3.26953862616192    3.74355900129648   -0.89052020987076
C         3.21662087887820    4.98908174791184    0.85135399884563
H         3.53554605362054    5.88402647110801    0.33580691659876
C         2.94455162782882    5.04564559803571    2.20772916433052
P         2.85255212432669    6.57629681099248    3.18806970690601
C         4.51991332809328    7.27448229373513    3.25440522866768
C         5.63646594801536    6.50774110174051    2.94039830286868
H         5.51138369032390    5.48179779404026    2.62139641516102
C         6.89971512769159    7.06440672780874    3.03466698462036
H         7.76802794402052    6.47144383549501    2.78654412935898
C         7.05129651222744    8.37712068943054    3.45067339505551
H         8.03944443939614    8.80677238150836    3.52516073779863
C         5.93874234975360    9.13721013027408    3.77922403520638
H         6.06074333974352   10.15700366512802    4.11280916027063
C         4.67301397495931    8.59023616810520    3.68685384377837
H         3.79516986744583    9.16004329477158    3.95849418122610
C         1.93388265759743    7.67725600191418    2.07799290748939
C         2.55962826666538    8.47130356676414    1.12476324906012
H         3.63888091026038    8.50211811612516    1.06790071519917
C         1.79307244817014    9.23234652351949    0.25995691455522
H         2.27674144349892    9.85474369925818   -0.47883526791146
C         0.41050281015966    9.19997541037949    0.34007520556341
H        -0.18129474291056    9.79907617292492   -0.33617526163979
C        -0.21450646475508    8.40642168514549    1.28925308720425
H        -1.29218497941061    8.38710218127109    1.35376510738288
C         0.54568264731092    7.64549812954274    2.15626409702855
H         0.07836497349152    7.03058623855048    2.91845617892757

