25
CSD_code = MPOCFE | q = 0 | S = 0 | Stoichiometry = C10H10FeO4 | MND = 7
Fe        2.62878935112993    2.51196629798947    1.77354738964888
C         2.44911198528743    1.11800765950634    0.37763816044990
O         2.62452935453974    0.90333373767833   -0.78192220280898
C         2.22203692467492    0.33172614561468    1.56366667820015
C         1.29151348347218    0.84687917288930    2.48045385089103
C         0.43329800593763    1.92558470141414    2.12273949235167
C        -0.36148361358758    2.54528222086718    3.25257185382728
C        -0.37277950346826    1.88040140528889    0.83848080810557
C         3.04909191678083   -0.89334992937865    1.84073718375608
C         4.36307060663531    2.62954897371605    1.48656571882905
O         5.48152051691061    2.76245910104472    1.27814572882183
C         2.86628827714799    3.33070711804644    3.33977400656419
O         3.07174691993427    3.92807257941506    4.29621504191314
C         2.09243815304492    3.82433873442487    0.67523379983384
O         1.77895652398346    4.67051586371998   -0.02557299673556
H         1.26622018087243    0.44387084326006    3.49095911264326
H         0.22864189710613    2.62109726445888    4.16248479640073
H        -1.24532746055924    1.93946664385615    3.46303964714105
H        -0.70032471504950    3.54144324453777    2.97933316245766
H        -1.31150436838787    1.35742357271054    1.03941554935494
H         0.14112211501560    1.35654282807856    0.03774176817870
H        -0.62195541597121    2.88039236828043    0.49228599702009
H         2.47683110046259   -1.77701795715163    1.55222980819167
H         3.30009351461358   -0.97301531639075    2.89769046140887
H         3.96547424947404   -0.88207727387707    1.25564518355420

