45
CSD_code = MPPNNI | q = 0 | S = 0 | Stoichiometry = C26H14I2N2Ni | MND = 4
I         3.64109807047262    0.21218932808086    0.52813095762370
I         1.77701305962022   -1.50487846460033    3.20242505104190
Ni        2.46915452060821   -1.82956044937647    0.86910107425077
N         4.30499556668127   -3.32140180576186    1.35438347627082
N         1.84917551156824   -3.47284415323393    0.70671958225584
C         5.59971719990549   -3.19789766936215    1.69476232301916
C         6.45259235509861   -4.38789280890195    1.94401510168907
C         5.93514708414168   -5.62444678189827    1.73785067911105
C         3.94273156425115   -6.92376923863205    0.86627068564867
C         2.63096454320128   -6.95800415949066    0.38441427251133
C         0.50867167286675   -5.67318855835631   -0.20992169622764
C        -0.04495827296045   -4.42857278694672   -0.37458045218413
C         0.65163140381378   -3.28288876521029    0.09844773301793
C         1.84557860512863   -5.81547212462138    0.32062697217944
C         2.46982228077437   -4.61034795877931    0.75023691235557
C         3.83840041057416   -4.54158157257712    1.17457912128361
C         4.57191524943452   -5.75500489993678    1.27496283733961
C         6.57554181644875   -2.32648315339185    1.87412802484120
C         0.66295654769898   -1.90035706966725    0.14780395140077
C         6.75809907198817   -6.81329972339328    2.01746677609725
C         8.04126437448918   -6.91688648099526    1.48849455746474
C         8.81339947306747   -8.03341816014083    1.75037262572004
C         8.31805186683485   -9.04950639886637    2.55092062478837
C         7.04711639584057   -8.94538381780612    3.09147640972359
C         6.26707633565241   -7.83487655521677    2.82626283780869
C        -0.25501727950924   -6.86929712359964   -0.59178089705940
C        -0.39022890506267   -7.93064200124097    0.30066173683246
C        -1.13061767072112   -9.04423119561493   -0.04947876623624
C        -1.73426473440690   -9.11639277737337   -1.29411270170216
C        -1.60453959249743   -8.06449478344988   -2.18585781589174
C        -0.87587283032289   -6.94306750785445   -1.83604136282449
H         7.46291861922948   -4.25912597131959    2.30514142909327
H         4.50480096772189   -7.84570278424722    0.88317864671559
H         2.23467813708263   -7.89603459616284    0.02614774257358
H        -1.01803064875574   -4.30608718298043   -0.82344509288061
H         8.42334433325179   -6.12726612688161    0.85784623932515
H         9.80486163371001   -8.10927006993927    1.33015474286130
H         8.92343298319283   -9.91905731036646    2.75697345716967
H         6.66171503357779   -9.73015252976889    3.72497774436823
H         5.28466303422510   -7.74519634008940    3.26690798190280
H         0.06020026947729   -7.86602759196355    1.28076510542886
H        -1.23823406280964   -9.85727839720151    0.65278573224994
H        -2.30787053227180   -9.98907983164853   -1.56702932916864
H        -2.07422102780584   -8.11607897231588   -3.15659393907599
H        -0.76647443448946   -6.12794267691600   -2.53685109270795

