39
CSD_code = MPSOPD | q = 0 | S = 0 | Stoichiometry = C15H19ClO2PdS | MND = 6
Pd        3.30727155479625    3.37104093909931  -10.62940239524730
Cl        5.41577293974160    3.76301133885981  -11.26935058295184
S         3.14155683245873    3.33149410945022  -13.48328172409674
O         3.06283704521031    2.02426083961177  -12.84210564151845
O         4.30230370599781    3.62486993693209  -14.27203557427919
C         1.47652865968842    3.62503656494756   -9.43970863024126
C         1.27242398537562    2.63680428940515  -10.37342069711754
C         1.40049642047760    1.14663010092805  -10.17663199235334
C         2.51822786050213    0.70870106038995   -9.21034699387701
C         3.78072194570586    1.51745311982918   -9.39219859805501
C         4.10101358093238    2.62634207348693   -8.66980395511164
C         3.24306575965444    3.29414860257121   -7.62067888868585
C         1.74285323857526    3.37629865457898   -7.96926046906868
C         2.82959917931739    4.57468557340967  -12.22168790661171
C         1.70943980510624    3.44086103562858  -14.57948932919729
C         0.62783450381932    2.60437717618279  -14.38083061798320
C        -0.48672651485201    2.72440751839340  -15.19439987591006
C        -0.50791087199157    3.68106393836538  -16.19677815927193
C         0.58327380631517    4.51313753941041  -16.39391387223071
C         1.69747989829026    4.39468139328233  -15.57993998055585
H         1.09627992601364    4.62233178776005   -9.67068619299456
H         0.71846944336271    2.90025494607230  -11.27550247546318
H         0.43931453118870    0.73856366053208   -9.84381330541131
H         1.62093922508130    0.72020330365405  -11.16096068918958
H         2.74305005502698   -0.34041959072066   -9.41313833776055
H         2.18760422539300    0.77331223638832   -8.17316323437232
H         4.56260542448776    1.04880586772221   -9.99497946883183
H         5.13843835758170    2.96408965762895   -8.67819460111396
H         3.36977246691079    2.77317875748514   -6.66566491163273
H         3.62428682888702    4.31118034635868   -7.48749022354861
H         1.30839409326301    4.19698174867395   -7.39444693927534
H         1.22539501512938    2.46633244537168   -7.66420241799931
H         1.77652816009679    4.85586238757279  -12.31749769097224
H         3.47806725939663    5.42614032497260  -12.42555616900372
H         0.68638593537040    1.85599827733396  -13.60548652647919
H        -1.33472814732812    2.07155428415869  -15.05017632759805
H        -1.37615871680267    3.77363441460285  -16.83230187292418
H         0.56575595576771    5.25025895956433  -17.18220961962529
H         2.56903662605966    5.01523038014628  -15.71596311145550

