8
CSD_code = MPYHGN | q = 1 | S = 0 | Stoichiometry = C6HgN(1+) | MND = 2
Hg        2.33912359417673    1.63449337748103    0.51927829833395
N         5.03522290233335    1.63458142212727   -0.38150122152802
C         0.29410172564452    1.63451203222598    1.20262310423092
C         5.31769766858466    1.63441911033859   -1.65054582539585
C         6.49454727268085    1.63448882824495   -2.22384412184374
C         7.47401611959272    1.63459545529459   -1.33639831738676
C         7.35903909739815    1.63443858242145   -0.01949725113912
C         6.10525161958903    1.63447119186615    0.35418533472863

