26
CSD_code = MPYHGB | q = 1 | S = 0 | Stoichiometry = C22HgN3(1+) | MND = 4
Hg        3.41324969637581    2.93861193847743   -1.96629230048325
C         2.09523176535943    3.93339037117355   -3.41980852764075
C         4.16478641735455    7.62571962707676    2.87680421053607
C         4.42694072575897    8.42898682029301    3.93685127683862
C         5.21593663775291    8.09566184525564    5.00348207545107
C         5.68266864328352    6.83020365270838    4.81130400400502
C         5.50903990808960    5.94716243110007    3.83768401715047
C         5.51366702515161    8.90611138327540    6.12851704758164
C         5.74664304810216    9.61544458533941    7.06623429996453
C         3.34018390600561    7.93918452421256    1.73498230606702
C         2.65549551767664    9.11900020507262    1.49321870281438
C         1.85232519254265   10.00682733566195    0.83249289365597
C         1.94605648249794    8.85060391869354    0.09889418356244
C         2.34851685330843    7.56339372657556   -0.21641213649040
C         1.29582334747724   11.26456962723801    0.86963155222993
C         0.80335515981987   12.36797990874762    0.89754705037776
C         1.99114745331176    6.81738747432071   -1.38875652966718
C         1.14300678118500    7.28411461429378   -2.45475727681093
C         0.39011148003953    7.40290932412771   -3.62490885579665
C         1.06973553175095    6.20032701349003   -3.40841399826055
C         1.87220670074125    5.14528926215426   -2.87061520232430
C        -0.41986475436908    8.15015230691728   -4.40718053522495
C        -1.15460980533647    8.83186187173297   -5.10659173784155
N         4.75814065903274    6.40816868738746    2.93395119030499
N         3.14980383095186    7.06158704623871    0.74139284751741
N         2.39360179613441    5.59855049843228   -1.64735055751973

