44
CSD_code = MRDTCO | q = 0 | S = 0 | Stoichiometry = C15H16CoN3O3S6 | MND = 6
Co        1.62372030294998   -0.31530494696863    4.56105640933471
C         2.73009868472732   -2.77027444318720    4.07032520914688
C         2.48746357988338   -5.17635382480679    3.76941937977407
C         2.48045165591092   -5.66715506820458    2.31490865319194
C         4.61430208600567   -4.12787507589932    3.33450801990639
C         4.53208006458756   -4.65525453822084    1.89521519234682
C         2.68414291921931    1.35183127677893    6.45585743941580
C         3.24210115016821    1.82315309424612    8.78029914154087
C         2.27297062773976    2.75118365388651    9.52606428661836
C         3.50752268185623    3.54819291399247    7.11704693949643
C         2.52938128147752    4.41543986502704    7.92184647914256
C        -0.50940768385846    0.48923532538760    3.16900859327725
C        -2.74285719324349    1.37085276462248    3.03317375251677
C        -3.54190166352875    2.17283149321881    2.37099671356738
C        -1.62075224386155    0.99061336778100    1.09631115504955
C        -2.45577470719224    1.80423808948144    0.49554893804091
H         1.47313723427961   -4.98109278730990    4.11724907989499
H         1.98591327591128   -6.63608398984760    2.23922690294383
H         5.13969875741591   -3.17353381685993    3.36795575421192
H         4.06659334445856   -3.88953956383227    1.25657051013892
H         2.96098525907182    0.77896850598934    8.91708172339216
H         1.24478220825036    2.53960535652228    9.19606102516800
H         3.41930816238314    3.75298761489697    6.05016773557299
H         1.50908290727042    4.25771463896710    7.54069026897082
H         2.95857860189503   -5.92886032949523    4.40928069507676
H         1.94889193605206   -4.93454333919193    1.68920118049949
H         5.13261281224167   -4.85749752849575    3.96448392343672
H         5.52696330924059   -4.88914089708114    1.51487943129883
H         4.26048545615078    1.98296320057199    9.14808491793815
H         2.34743787272416    2.59806764687498   10.60313111624444
H         4.53192658677654    3.74688015798048    7.44731162951755
H         2.79047132472147    5.47055086421568    7.83386093690497
N         3.26948649228845   -3.96146522807590    3.84063320650568
N         3.20719128391901    2.15651325892268    7.37312901084613
N        -1.62422141529493    0.88718678984018    2.44566390087975
O         3.79292124554975   -5.85179312069303    1.84046634260618
O         2.59163853851632    4.10240906787464    9.29271303176172
O        -3.34378438693299    2.55885956868242    1.12110511121695
S         1.10347663686371   -2.55505737357491    4.51103043157763
S         3.60839213580455   -1.31963695670351    3.98559275678623
S         2.17747643356965   -0.23383904775731    6.78987791749880
S         2.48677294490527    1.80063990897038    4.82924854951218
S        -0.54372126197657    0.43566693743856    4.84307809834070
S         0.88976076109476   -0.00428348597412    2.39083850890431

