29
CSD_code = MTACNI | q = 0 | S = 0 | Stoichiometry = C10H14NiO2S2 | MND = 4
C        -0.72459869158064    3.73992284643000    4.52455774912365
C         2.86746545256292   -2.10607683380108   -0.92463055502940
C        -0.28577556001688    2.54970790451788    3.72403026880090
C        -0.71038071242041    1.29762026661471    4.10078568943668
C        -0.36341226764716    0.10483464963984    3.43548968479433
C        -0.93515212050199   -1.18264725213270    3.98241606308312
C         3.97625605695755    2.54092869240419   -2.24550490373118
C         3.24948528469680    1.65529260861843   -1.27721076368678
C         3.31706251803169    0.29176722201346   -1.43852960931401
C         2.67509597853707   -0.64258713555381   -0.60133942622650
H        -1.35366248389973    1.21869033192494    4.96539616882745
H         3.60046863251356    2.37675688192882   -3.25435626895753
H         5.03992298240123    2.30806374685485   -2.24041408428695
H         2.32483720351537   -2.71256979945957   -0.20494126490170
H         3.92518260388943   -2.35764910175053   -0.88820023078406
H         2.50036301764409   -2.31573062733690   -1.92694758441506
H         3.89918836065069   -0.09380796895872   -2.26271850963410
H        -0.31711184621423    4.65345763730290    4.10201759777096
H        -0.38514571166586    3.64199964627964    5.55464975956013
H        -1.81154318886361    3.80494887138455    4.53308786939396
H        -0.59596560902208   -2.01822157076866    3.37661774701033
H        -2.02209130075501   -1.14067788742816    3.96847558925631
H        -0.61144900392104   -1.32449867504339    5.01121576674178
H         3.83943961871476    3.58536392956484   -1.98179879355498
Ni        1.35500906742776    1.19302165888504    1.29643507203081
O         0.37856301889321    0.02670544233496    2.43174356728702
O         1.95993200931672   -0.35816308536921    0.38443190375752
S         0.71325610895959    2.92080759376603    2.40447142112499
S         2.40956058179570    2.48624000713795   -0.06012992347800

