47
CSD_code = MTCPMO | q = 0 | S = 0 | Stoichiometry = C24H15MnNO3PS2 | MND = 6
Mn       16.43148069601455    3.53086603975808    9.41403188601590
S        14.42741166009720    3.18723676475270   10.83063347636028
S        17.03955639606960    1.93320579779934   11.24962457759754
P        15.86645481709017    1.62149776070705    8.19970883461398
O        18.95919489852160    3.92191537171151    7.97526268142984
O        14.89161975240261    5.38796251318580    7.74848221160406
O        17.15037394342323    5.61251566663564   11.34588371433348
N        14.77595610041963    0.95385018486284   12.18773480233647
C        17.97370081071356    3.73302031652996    8.54075427947567
C        15.52638157912365    4.65829417792426    8.36776198628862
C        16.87994305378989    4.82070185290755   10.56910846679841
C        15.36949326551596    1.96079655883667   11.50547939156080
C        14.60090203043964    0.13517460863366   13.19355605413827
C        14.04884415021495   -0.28190375190061   11.89982333823152
C        14.69176885905086    0.54354703645284    9.06140299455800
C        13.33825223880976    1.03444885922059    9.22066132690984
C        12.47104305494962    0.44891195814638   10.05971276355572
C        12.90560638119719   -0.57077682791566   11.01463452153263
C        14.31323663563750   -1.19094769334461   10.74733666156599
C        15.10114196737783   -0.58775991265910    9.68300920878382
C        15.13158510800722    1.91780023516718    6.56255357659470
C        14.07268707098101    1.17433204424972    6.05233957410682
C        13.60018685996971    1.43729194938651    4.77834296986140
C        14.18508524638148    2.42780704982525    4.00745142009792
C        15.25190741271288    3.15857623171817    4.50712158354556
C        15.72399139554738    2.90649869601029    5.78097242519338
C        17.20948761763450    0.47241507322135    7.75187426246765
C        16.97896582745185   -0.51754626172031    6.79842575052353
C        17.98575185552979   -1.40359208694857    6.46692973151082
C        19.22638567275702   -1.31063039771518    7.07929054184579
C        19.45885326068525   -0.32863732981849    8.02676152672679
C        18.45451315155163    0.56223954183294    8.36303463106996
H        13.02467756582065    1.84358925087942    8.57292820945357
H        11.42878163110556    0.72916688821441   10.07320236243620
H        12.13610030987857   -1.22116182825122   11.41400623357505
H        14.47225637087713   -2.24137350267102   10.95807570449407
H        16.05942919642021   -1.03550558487920    9.45501881288375
H        13.61388014931304    0.39581293551383    6.64730898842424
H        12.77206159814769    0.86450974096223    4.38710300827630
H        13.80938988065379    2.63024404075892    3.01570741959007
H        15.71196758831850    3.92749234418886    3.90515553618947
H        16.55624273919105    3.47389221563090    6.18691694540266
H        16.01328693625250   -0.58904209365962    6.31761543126664
H        17.80332075488102   -2.16904276639568    5.72700670153798
H        20.01083228872908   -2.00416517363635    6.81561382152021
H        20.42324196374569   -0.25302067943943    8.50611894441816
H        18.63926825666747    1.32589218531312    9.10842070925431

