37
CSD_code = MTHCCO | q = 0 | S = 0 | Stoichiometry = C9H18CoN3S6 | MND = 6
Co        3.31602804996605    2.58074882785290   -0.22031261256117
S         2.70911314809866    1.16996510486248    1.49179089805582
S         2.98958901241817    0.56032411618175   -1.26949702847920
S         1.18533267706058    3.30142134778428   -0.69950733008983
S         3.57755152189576    3.81029514586092   -2.14638858121883
S         3.87267883937982    4.36091096042886    1.12543143978034
S         5.56060645767332    2.27926621818038    0.18058481913878
N         2.27075185216370   -1.27832322542543    0.52563873256942
N         1.21410097743055    4.77407033113762   -2.92433192508525
N         6.46364695348078    4.23816402429206    1.75118455745622
C         2.61158339049513   -0.01490804062217    0.28127810093714
C         1.90219769673354    4.05614668819376   -2.03936012611639
C         5.43402907757712    3.69725288552165    1.10360780045713
C         1.94785330446295   -1.74481502299226    1.84995147254930
C         2.19712945495467   -2.26995719043668   -0.51684822630686
C        -0.20749556590617    4.97797726760994   -2.80950121466521
C         1.84130168767402    5.39892723538329   -4.06093348908604
C         6.33326598634779    5.44095520787481    2.53348073253268
C         7.78344891022669    3.66159999784035    1.71403142733224
H         2.63250848718411   -2.54523978884960    2.13948287464386
H         2.03544938176852   -0.92424720258487    2.55838541377373
H         0.92555316176848   -2.12941715421324    1.86968584442055
H         2.89124350478624   -3.08609856889059   -0.30292927468454
H         1.18363318851568   -2.67374932230665   -0.57548549976924
H         2.45882337751535   -1.81797061460123   -1.47103404422178
H        -0.57418572421201    4.49732174089135   -1.90540845011680
H        -0.71736475727840    4.55043110488608   -3.67602352385206
H        -0.42550338328287    6.04719064191973   -2.76284905211864
H         2.89998661602862    5.15026789743084   -4.07715826765312
H         1.72786964360857    6.48392304248344   -4.00087246498786
H         1.37379053021725    5.04492068123440   -4.98234102352602
H         5.29747130001467    5.77261690620471    2.52474801450765
H         6.96623653289897    6.22795513946249    2.11673860227508
H         6.64104499899894    5.24780729714875    3.56348293683348
H         7.78048822124194    2.78183293137990    1.07457964444347
H         8.09308402899897    3.37294429622858    2.72120954151078
H         8.49525745909695    4.39058909265218    1.32048928130939

