41
CSD_code = MTPAPT | q = 0 | S = 0 | Stoichiometry = C16H20As2PtS2 | MND = 4
As       -0.76723384796827   -1.64423692620920    1.46360308082357
C        -2.55269154383590   -1.50213066786691    2.23242827308746
C        -0.70612018354337   -3.52107241832387    0.94256447175582
C         0.41269734542699   -1.53633096836831    2.99754351707995
C         1.41727536061352   -0.56232519535829    2.96138898031710
C         2.28800397798550   -0.44478641803793    4.04560756156568
C         2.15962236145632   -1.27967414414774    5.13623884601577
C         1.16528239352909   -2.24700045929505    5.17267920757327
C         0.29763434385035   -2.36755604887091    4.10145872622422
H        -0.48583165891701   -3.11969450254486    4.11475005421443
H        -2.70942183496473   -2.28301041111758    2.97959918331323
H         1.06952371483810   -2.89888277036721    6.02814714674160
H         2.84176982717012   -1.17681436550423    5.96747667840565
H         3.06119917764767    0.30849041893708    4.01538861981764
H         0.31125847966894   -3.78868515979460    0.65359659170791
H        -1.36566918114559   -3.66793790492471    0.08568933554252
H        -1.03067299427132   -4.15842348075470    1.76768385331079
H        -3.28848754965559   -1.60579813436675    1.43335809743469
H        -2.67424278089738   -0.52320604452631    2.69836462208605
Pt        0.00005119480196   -0.00006590048988   -0.00003817752372
S         1.64025348248813    0.52960333645163    1.60877044207958
As        0.76723131623692    1.64424019882708   -1.46359822198734
S        -1.64033440137596   -0.52950588592591   -1.60870287269214
C         2.55266595434495    1.50202993780727   -2.23244426465650
C         0.70622595422799    3.52110240778923   -0.94261112369167
C        -0.41272276758171    1.53635932380693   -2.99752369789764
C        -1.41732519168410    0.56238100985520   -2.96134881341205
H         2.70942471775996    2.28288103179279   -2.97963511606283
H         3.28848097590534    1.60567837394194   -1.43338730504775
H         2.67416718110043    0.52308626351229   -2.69835699330722
H        -0.31113673858155    3.78876553720480   -0.65363961886489
H         1.36579217041395    3.66795429757612   -0.08574865351944
H         1.03080160368545    4.15842250725852   -1.76775053856796
C        -0.29764651347059    2.36756407367923   -4.10145211726209
C        -2.28805996002140    0.44484237294565   -4.04556217999217
C        -1.16530524868117    2.24701609170458   -5.17266452217765
H         0.48583584552302    3.11968450100415   -4.11475699991164
C        -2.15966603894912    1.27971188051131   -5.13620628207954
H        -3.06127062018025   -0.30841775226606   -4.01532959911630
H        -1.06953925172434    2.89888689580433   -6.02814034687697
H        -2.84181907122505    1.17685509865090   -5.96743984444976

