53
CSD_code = MUBBAO | q = 0 | S = 0 | Stoichiometry = C19H32NY | MND = 12
C        -2.48531076352646    2.43664519355130    5.82569441494087
C        -2.42186314292631    2.93575912514746    4.49463779816470
C        -1.12402787180412    2.64966548636798    3.98762152425863
C        -0.39420262373309    1.96913909439690    5.00189343456346
C        -1.23650820458301    1.83585919759912    6.13359811092301
C        -3.72237192370710    2.35465278135906    6.67842999542276
H        -3.47242930003628    2.41251256764139    7.73833143715617
H        -4.23719006614450    1.40472363232353    6.51155000431867
H        -4.42009244774137    3.15754421345109    6.44278642837939
C        -3.61649424503354    3.45029373763346    3.73283768948235
H        -3.42532864714220    3.45907772709691    2.66097833756549
H        -3.90761241458414    4.45966116575084    4.03743920925471
H        -4.47143000923004    2.79543158543898    3.90534934630408
C        -0.59310155801699    2.99616328461958    2.62371819182461
H        -1.41376435437660    3.27316748246564    1.95977535521821
H        -0.10480377792740    2.12461446847789    2.17617649958384
C         0.96594418880878    1.34044013688881    4.85251876191002
H         1.73016826492654    1.85263364477520    5.44272172688991
H         1.28173265225813    1.34762111847750    3.81121771758529
H         0.93591033536327    0.30124705513649    5.18233319938887
C        -0.94476400606583    1.05185533395315    7.38366484165543
H         0.09360781145937    0.72935771661862    7.40433486562571
H        -1.57664229501892    0.16208479510135    7.42855982482113
H        -1.13749346372811    1.64176189386566    8.28288476659716
C         0.44948818578181    4.12849044705399    2.66630169225093
H         1.34711601604860    3.75435874822399    3.16854680176388
H         0.72495247176044    4.41156648066257    1.63642425492547
C        -1.06563411685367    5.99746306749253    2.65737344411864
H        -1.93653085232780    5.35335520273675    2.57209920248910
H        -0.72283175702711    6.26611637503636    1.64790359454138
H        -1.35602711581649    6.90667038133179    3.18323454465325
C         1.11781537112892    6.25296457039934    3.54112195845387
H         1.94061432967659    5.78194243691416    4.07947050102765
H         0.79304175835767    7.13443037110539    4.09605708046778
H         1.48507880104161    6.57423110490882    2.55576377924393
C         0.79218663217577    4.38979160475671    9.33797126146649
H         0.49835154077149    5.41835630522382    9.48597285595380
H         0.74135465673149    3.74793773487740   10.20046461166208
C         1.18400097900261    3.94184337822664    8.14372738515944
H         1.49105054634581    2.90138102750712    8.05716615434208
C         1.27027216889014    4.74591319125688    6.90820548662670
H         1.48228395948457    5.79344769040835    7.16545920248430
H         2.09371065809197    4.37370635677982    6.28435200972123
C        -2.25268403334970    6.07673848341250    6.78290849611778
H        -1.80201293383955    6.58027098691311    7.64912258056631
H        -3.18733206955156    5.60386377298843    7.10986209343388
C        -2.53608561282108    7.06728168816910    5.73231971968680
H        -3.38999790555277    6.85292462959759    5.09058620667330
C        -1.85664153773426    8.19790820309890    5.52119459103338
H        -1.01648020567317    8.47230080756434    6.14151510151998
H        -2.11687642225951    8.88692605183409    4.73513811326362
N        -0.00533043246431    5.31813435369684    3.40951643456022
Y        -0.79448521750075    4.50557210967958    5.88876735995904

