89
CSD_code = MUBFAQ | q = 0 | S = 0 | Stoichiometry = C33H45BMoN8O | MND = 6
Mo        2.86817669295519   14.28170410859116   12.38628829754343
O         1.69948407537673   14.41847875358130   10.88529950157322
H         1.24654674284132   13.75962948971936   10.35459391905916
N         1.84112220573726   14.84262147350616   13.70325894618968
C         0.92954306300744   15.12861870151480   14.62883966717734
C         0.73791757157385   14.33369184383123   15.78508001587943
C         1.59879830183749   13.12726449368787   16.03582280872778
H         2.43261491753399   13.37175032132689   16.69690402597609
H         2.00894440157372   12.75402625289209   15.09825951101239
H         1.01805686674183   12.33611121343014   16.50851179585672
C        -0.25256322033311   14.66569904543506   16.69333856968683
H        -0.38117389022054   14.04289721776587   17.56959088742224
C        -1.08442455412723   15.75933008298008   16.51148938982205
C        -2.14789177851083   16.10841910513800   17.51025016601593
H        -1.85370006781466   16.98562742209116   18.08810613221830
H        -2.31628708325069   15.28618506553595   18.20197938783109
H        -3.08574753854466   16.34131631697191   17.00815059474561
C        -0.89832148826674   16.53997351760565   15.37407465306708
H        -1.53756585453808   17.39855491570260   15.21545126073574
C         0.07954346035663   16.25289693183613   14.44776672675740
C         0.28677397240636   17.09981426880935   13.23102808678676
H        -0.47037734256140   17.87716325210755   13.16036467891161
H         0.25963846763905   16.48162891850376   12.33094139030775
H         1.27514180422105   17.55833949412039   13.27146165339404
N         3.93007917666996   15.64703940027454   12.04897060741331
C         4.76410027278946   16.55845804129260   11.55772960216141
C         4.26977996170119   17.67430982512144   10.83169912907503
C         2.79407436666532   17.82251264937926   10.59769172414888
H         2.27950584025868   16.89334687728024   10.84746855961983
H         2.59947860097195   18.07929365905750    9.55689231706228
H         2.38867261022004   18.62092081963475   11.21945200630725
C         5.14696718375658   18.60885644746688   10.31980879965514
H         4.74521641525388   19.45037576476033    9.77057316780375
C         6.52263922205317   18.50137175856215   10.48325654717976
C         7.44650575002769   19.55220121081097    9.94206050868706
H         7.10115103865995   19.90974914424769    8.97354394219517
H         8.45632092895626   19.16254622837449    9.83272646528395
H         7.48496736562886   20.40731657305384   10.61886119625695
C         7.00855503529400   17.39530593761866   11.16582075750530
H         8.07790390243443   17.27557104480020   11.28467419267099
C         6.17070385374189   16.43052139135349   11.69234770016218
C         6.75309726405066   15.23198373073437   12.38595528950035
H         7.77652798619450   15.06281358782850   12.05525897679108
H         6.15896889170441   14.34281408260745   12.16689296981989
H         6.76453208628800   15.37074455763881   13.46789778549642
N         4.08069150967313   13.03312731619723   10.94465109354892
C         4.55708022049559   13.33676997354308    9.74013632162006
C         4.21242809585911   14.58285955337585    9.00901095796597
H         3.29959938077669   15.01546979150556    9.41648824837901
H         4.08387544837164   14.36961929909395    7.94897711973628
H         5.01379515485479   15.31362635156047    9.11644159404361
C         5.40456527521791   12.30912473577932    9.31184621549899
H         5.94124108087402   12.25894387586925    8.38653569977496
C         5.40467350126013   11.37598659351127   10.33080173695572
C         6.13695282930423   10.08497114955605   10.40769143319621
H         6.79767706581133   10.06827716252310   11.27272736272922
H         6.73178506982537    9.95300503454548    9.50798962861577
H         5.44263097594916    9.25090076500715   10.49624355478716
N         4.59410859724790   11.83989477030245   11.30209643859867
N         1.92756238820783   12.24192966875245   12.55120045378356
C         0.64761452430929   11.89741282669610   12.67259137280595
C        -0.47825377703846   12.86600840398114   12.60189831839552
H        -0.11951824066956   13.84422837056890   12.28488896931441
H        -0.93456461660430   12.97378760844828   13.58557384039923
H        -1.24167076516336   12.50812089079837   11.91191075628823
C         0.56485247682687   10.51860520395824   12.89344270560859
H        -0.32506844248597    9.93927218324824   13.03176220807774
C         1.86991903401616   10.06341051470322   12.90128394971895
C         2.36515869874424    8.67553079412007   13.09334754871951
H         2.94922067563262    8.35203433921429   12.23353427519755
H         1.51986556406633    8.00416849580384   13.21758355921202
H         2.99866951363818    8.61027319559929   13.97627251870679
N         2.66998554631238   11.12683464166593   12.69204632074803
N         4.21146641114792   13.43082208054182   13.78454540810557
C         4.73484699888475   14.01988346629828   14.86353034565948
C         4.46086200322582   15.42976597799138   15.23914860068946
H         4.45654982794689   16.05965295444635   14.34919238002065
H         5.20843495532823   15.77892308563165   15.94817817537395
H         3.47461072526943   15.51189131507417   15.69633768232436
C         5.53487049257618   13.09618573544127   15.53920282689676
H         6.09265961912891   13.25974120621530   16.43884817481571
C         5.45708488203654   11.92385543353805   14.80814789354113
C         6.11785491953388   10.62061964048953   15.07774930589480
H         5.37859601287277    9.83414310927238   15.21785084571751
H         6.72104221703638   10.70032378009732   15.97774073629148
H         6.76053334211853   10.33568762405889   14.24686510903577
N         4.65174543245931   12.15737840443136   13.75654953557865
B         4.20220474206646   11.20291675600386   12.63746241388616
H         4.68716315410161   10.13692098193414   12.76484205222463

