71
CSD_code = MUBFIA | q = 0 | S = 0 | Stoichiometry = C31H33O5PPd | MND = 4
Pd        9.46151937555814    7.10418500787625   -6.46290697520196
P         8.63591467328012    5.36633635128649   -7.55889634893366
C         5.92464245474968    6.95802242638541  -10.04446589967841
H         5.81599797916102    7.90007707775593  -10.55866917735052
O        10.62904774825291    8.54903461596112   -5.41176434541978
C         7.01673808105505    7.01383509540719   -2.40405184767933
H         6.48998753111023    7.04020634890978   -1.46034482172073
O         6.71386975138176    4.76365451865727   -5.80447077381315
C         8.29007333928773    1.50667635334928   -5.14857708092360
H         8.19059792148694    0.63083742512628   -4.52476384821295
O         8.03251831802960    7.56201845110326   -8.95980426020555
C        10.91908872751167    5.89365399126998   -9.11361522568908
O         9.69936436588520    9.64874481124727   -7.07857782756980
O        11.12188983273409    6.85882480713206   -8.17598897422033
C        11.48879619672040    4.67386878531599  -11.10899945580568
H        12.14863378701898    4.53136484988651  -11.95188203252760
C         8.16849713607878    6.25813300173118   -2.53159378963396
H         8.54034151287253    5.69251583355815   -1.68752521186028
C        10.40957036892919    9.60652933489478   -6.06186875255442
C         5.08142138894600    4.74759260621879   -9.57967805052772
H         4.32942348028580    3.98735396384090   -9.72797331003415
C        10.39086776236348    3.84941628827699  -10.93949660695923
H        10.18741216560904    3.05896968457690  -11.64553803811673
C         8.37877203513061    6.96841994407187   -4.80649187085067
C         9.32487520652603    1.58750520441393   -6.06298216488137
H        10.03265059092242    0.77741686628731   -6.15173883361130
C        10.12825900409157    5.41562355144928   -3.87113323992334
H        10.69894723661265    5.43301410727940   -2.94455974963190
H        10.75338776643079    5.82077027100577   -4.68278191481040
H         9.88196144725938    4.37658551270769   -4.10316611615338
C         4.96645946301245    5.97039631753158  -10.21600047321968
H         4.12202505303707    6.16354876049317  -10.86105468225540
C         7.99309175098611    8.86603113967662   -9.50700865328991
H         8.14929121858969    8.83862659367412  -10.59096878927763
H         8.79961146020913    9.40855384481614   -9.01432164624761
H         7.04362215270429    9.35890951668965   -9.28169516215236
C        11.75537591015850    5.69098161137796  -10.20833784745164
H        12.61494548267553    6.32107043153199  -10.37311221538820
C         6.53949274479029    7.73999120440980   -3.48227379045485
H         5.63986978725473    8.33209193119472   -3.37833663738800
C         7.01252316753923    6.71169321866828   -9.21831118814832
C         9.45943198706970    2.71468071321023   -6.85939904493618
H        10.27455612255715    2.79056434965001   -7.56477943638938
C         6.16664672011458    4.49759117779433   -8.75419295290620
H         6.26496088899141    3.54412268574735   -8.25533195062356
C         8.86839016995892    6.23288432423169   -3.73428657838198
C         7.12934557336644    5.47236759226372   -8.56915336110595
C         6.69665676191899    8.45647878815385   -5.90258475148726
H         7.53039109567847    8.93561605034676   -6.43173329523406
H         5.96772968020965    9.21373097720872   -5.61948411904649
H         6.22029790780022    7.74622913345806   -6.58517403201308
C         7.21300255486526    7.71757696886247   -4.69757708431217
C         5.62101252752955    4.80339555723193   -4.91710433331833
H         4.92586741218648    3.98018941469702   -5.11341967472029
H         5.12252939440421    5.75236553635948   -5.09932360603343
H         5.95562922126521    4.77112946353742   -3.87688749953737
C         8.54468518538700    3.74801902335217   -6.75158648425344
C         9.55037069909747    4.05461025278977   -9.86045753019395
H         8.67973272409560    3.42903586024820   -9.72032315614559
C        12.23924024349330    7.71103608865395   -8.31142370952087
H        13.17379892500895    7.13882844368577   -8.30854334967860
H        12.22213260300257    8.37206616125972   -7.44490698775109
H        12.17031868681522    8.31341318824588   -9.22336351184680
C         7.50828648105470    3.66762509139080   -5.80838992846512
C         9.80286448670469    5.06243756529847   -8.93983680996622
C         7.37595206338975    2.54192776222450   -5.01079160985054
H         6.58724029620347    2.46552642248890   -4.27905804541191
C        11.07077510426401   10.88094838106668   -5.54686496434014
H        11.20777205126649   11.58844919138901   -6.36041129347077
H        12.02190585808108   10.64785949990153   -5.07472991823746
H        10.41400119796930   11.32461267825382   -4.80055335102412

