31
CSD_code = MUBGIZ | q = -1 | S = 0 | Stoichiometry = C11H15N2S2W(1-) | MND = 8
W         2.86577453547696    0.07624278326751    4.25087896313630
S         2.09213640710617    0.44592856528968    2.18116011430367
S         4.71794089942364    1.33671764005580    4.28277861691201
N         3.52672466630903   -1.63843583523135    4.15404443409678
N         3.68211013777163   -3.92649665825350    4.94468089049559
C         3.62946341543384   -2.82689133281840    4.53959647912752
C         2.14097491675378   -0.27058713156205    6.51331682782564
C         1.06293371181988   -0.66041819221731    5.65801528090643
C         0.60277248811917    0.50014220319580    4.97189654326786
C         1.43250352428544    1.59491777573754    5.36207925533171
C         2.34409631215130    1.13109102033746    6.35773439807244
C         2.80323215536066   -1.16850374922086    7.52171840659577
H         2.16686149639874   -1.28684048325636    8.40360458087308
H         3.76180485154050   -0.75865761152762    7.83654252109493
H         2.98401769786631   -2.15698540698707    7.09816149565672
C         0.43417243010559   -2.02652139360754    5.64266514324420
H        -0.18738474895926   -2.17006417218201    6.53108865560083
H         1.19874120682382   -2.80447930410409    5.63432236635710
H        -0.18685435964589   -2.15912861198501    4.75814332252413
C        -0.62412640889650    0.62205229652948    4.11239111242067
H        -1.23380134798353    1.46290194783958    4.44727708179552
H        -1.22417250002310   -0.28412608971694    4.16348382263867
H        -0.34606558867749    0.79104810891820    3.06779111483202
C         1.21735532272416    3.03355322378385    4.97390674797589
H         0.49502420969396    3.51056434885953    5.64422012390515
H         0.83901837809440    3.09784034996437    3.95405502873900
H         2.15578485098679    3.58477247593740    5.02538798202002
C         3.23393998461572    2.01442419192985    7.18683368290636
H         2.68361077826128    2.89675417737528    7.51673660002765
H         4.09930451473539    2.34486279000344    6.60416632422825
H         3.59550606233197    1.48212207363886    8.06432208308308

