141
CSD_code = MUBKOL | q = 0 | S = 0 | Stoichiometry = C68H66FeP6 | MND = 5
Fe        3.52268119149564   10.85333846328496   14.58963238373421
P         2.00031734388789    9.34348661136951   14.40520642056535
P         5.04459237253314   12.36822877095449   14.75299092424245
P         2.37425000739412   11.51632449480683   16.29054806289389
P         5.22649955247037    9.51966492285905   14.58651956836624
P         2.91498855158869   11.87513181064115   12.79746211144336
P         1.24441423148674   15.58612312591283   17.23965169667546
C         1.42576038667830    8.48592974908634   12.89934248822659
C         2.35911473608394    7.66184216486524   12.27689067698849
H         3.34379303754528    7.57177454907908   12.71192058666637
C         2.03143756369585    6.95097253244986   11.13957376529491
H         2.77038579585674    6.31836225830805   10.66898506695023
C         0.75384929531136    7.04671146293485   10.61254477841958
H         0.48964030182694    6.49328698367177    9.72300187009614
C        -0.18762955879034    7.84843193383082   11.23552765460842
H        -1.18942580621200    7.91476820629124   10.83430462118059
C         0.14108961647989    8.56833110510101   12.37132861872089
H        -0.60609775756402    9.19579373031416   12.83383295831630
C         2.04363795676628    7.88646241093862   15.51408213436853
C         2.86430710882666    7.95293316838727   16.63136363826473
H         3.50629634899173    8.81903645060881   16.74040338886508
C         2.87677437072109    6.93280366060362   17.56616924198982
H         3.52532013220522    6.99958350339970   18.42919746125954
C         2.06628581565979    5.82580278360441   17.37988169553639
H         2.07363808532267    5.02074974802444   18.10056149417291
C         1.24665458436882    5.74972741263118   16.26423397320380
H         0.61601637863486    4.88405785505618   16.11847984343543
C         1.22628848641083    6.77468812772239   15.33574664863348
H         0.58096093223408    6.70683815223263   14.47080478593331
C         0.42874671015369   10.05975023657296   15.06569611568683
H         0.12838049974058   10.87332107950781   14.39323548593310
H        -0.36325277250676    9.30420405807631   15.10845434310163
C         0.77241352977760   10.59296192761414   16.44668422256921
H         0.90507305929643    9.75327243223535   17.13510287540146
H        -0.00596133059740   11.25046820739185   16.84721918150113
C         2.79884450352217   11.70093073049947   18.06783399377779
C         3.23843893103211   12.92357570108666   18.57248773002315
H         3.27848509692114   13.79443211024760   17.93465060736909
C         3.60298832750911   13.05126683405476   19.89986879833740
H         3.92113385956190   14.01483501378355   20.27114166539419
C         3.55742969588730   11.95722413005222   20.74638869101710
H         3.84302819456797   12.05758255917202   21.78371496598356
C         3.14251876334004   10.73142976833832   20.25225466286055
H         3.10673172178033    9.86859487237044   20.90285037647375
C         2.77064444773651   10.60299062880642   18.92749162615329
H         2.45576869120851    9.63530335404147   18.56590640687659
C         1.66617577089003   13.19103661646494   15.96639187313690
H         2.53347911475076   13.83573650393119   15.77501030595705
H         1.15611486926123   13.06372044642364   15.00567609447930
C         0.73543763492115   13.81026815653880   17.00685531218262
H         0.83370935776668   13.30145884461244   17.96879456469180
H        -0.31172734444826   13.76178229603651   16.69440645207279
C         0.59136069902127   16.21747720699648   15.64216632114555
C        -0.75889362673720   16.16614178949428   15.31021617735051
H        -1.47438007353477   15.77145372144487   16.01932138832117
C        -1.19072318587202   16.63865494004602   14.08556821219254
H        -2.24375059821751   16.61071989597152   13.84113153390300
C        -0.28094126424907   17.15103148493507   13.17290086852314
H        -0.62230180250929   17.51325027923010   12.21400827004165
C         1.06407837735449   17.20105022109489   13.49428818534043
H         1.77588940637021   17.60182071504530   12.78654850962005
C         1.49517288748647   16.74443034786039   14.72801672887744
H         2.54151918407693   16.80117942929225   14.99545852078106
C        -0.06675609867051   16.17279375738093   18.37139994802339
C        -0.61489766082811   17.44261047409716   18.20721125598995
H        -0.32153335715733   18.04516782173026   17.35797524498301
C        -1.53486892902458   17.93107937514733   19.11534949401054
H        -1.96274526689553   18.91283105500861   18.97062956541537
C        -1.90441803961102   17.16774857061419   20.21072640328254
H        -2.62545795549406   17.54898170145442   20.91887270197327
C        -1.33571328964736   15.91961643439747   20.40123361120244
H        -1.60751474590091   15.32725903388637   21.26333386132243
C        -0.41464243238343   15.42803954484185   19.49449003487467
H         0.03834032437732   14.46112354910702   19.66376574673890
C         5.30690279797124   13.65386738606014   16.03236222463052
C         4.80676294591953   14.94496276617881   15.87009171348677
H         4.28307084619655   15.21163903935852   14.96296793722868
C         4.98253890530038   15.90282579927432   16.85172206263861
H         4.58383533858593   16.89791500131524   16.71158067328002
C         5.67161922250533   15.59200698678793   18.01164336046561
H         5.81525347324123   16.34340872647536   18.77412987975027
C         6.16939737534180   14.31253071211177   18.18691363684536
H         6.70583558359855   14.05797777749594   19.08995332433080
C         5.97564269043760   13.34785277009992   17.21532763984392
H         6.35104668217016   12.35017613121352   17.38697248813718
C         6.77271879951546   11.71527933986471   14.64468033627931
H         7.41723722472365   12.46427228944891   14.16906021905764
H         7.15111224761837   11.51606561178446   15.65063317527323
C         6.68560447861595   10.41760023890824   13.86548146686803
H         7.60035983678673    9.82126753499408   13.94747158331998
H         6.47281817895137   10.62272712731104   12.81043520317996
C         6.05712408922119    9.15280089151917   16.19328321916797
C         5.65821085731535    9.88363157230722   17.30253997595183
H         4.84836444131348   10.59750194673994   17.18179693041654
C         6.27416557222781    9.71564839922623   18.52883984580533
H         5.94327478451281   10.29308338619881   19.38124591054774
C         7.31022891877941    8.80578445534911   18.65178237886616
H         7.79623601263752    8.66181653417497   19.60616714480820
C         7.72760771433169    8.08135033880750   17.54571145159120
H         8.54251570142731    7.37726824590779   17.63995438670039
C         7.11067549108162    8.25273522797390   16.32011492045091
H         7.44638254182572    7.68164236650570   15.46508972713893
C         5.48749011455008    7.86867909359346   13.82887794519559
C         5.03272148823652    6.73994796836952   14.50979142941475
H         4.59236241784398    6.85576976271323   15.48861043975758
C         5.15141805457427    5.48068760293472   13.95428505078937
H         4.78743089984845    4.62048009779014   14.49792314916245
C         5.73639339011089    5.32272669508638   12.70860142496235
H         5.82784585049269    4.33935685300604   12.27061157516604
C         6.21475981879229    6.43299466376698   12.03416801396447
H         6.69135463034683    6.31506345370560   11.07056720833547
C         6.09198278629679    7.69618043303739   12.58577417478607
H         6.47734680926557    8.54567459414635   12.04235089670168
C         5.07114329255972   13.39489701268126   13.20970357034301
H         5.61764796826033   14.33262399912983   13.35438661922506
H         5.60211858743843   12.78731435845842   12.46348744068631
C         3.63848295654816   13.57867295305690   12.75350520594565
H         3.57049695380358   14.01410172974686   11.75220000956606
H         3.08223899394361   14.20815673020884   13.45341913572733
C         1.21881284562526   12.26006470641327   12.20600095916986
C         0.60183304101288   11.34945601760195   11.34975499087510
H         1.15353800462862   10.48164069114323   11.01726035579634
C        -0.68990592827133   11.55403558746978   10.90469612700315
H        -1.14498044963228   10.83575195874481   10.23751144806854
C        -1.39417272498132   12.67622770800517   11.30753556293049
H        -2.40549282438261   12.83856040702717   10.96350689425153
C        -0.78690137984336   13.59718258340618   12.14371248743903
H        -1.31805805007446   14.48663102468304   12.45096252167721
C         0.50722893736321   13.39468951348205   12.58915635373573
H         0.95674274154138   14.14895977365473   13.21924514421542
C         3.53111800157676   11.28543002666015   11.17162676712769
C         4.19220639245842   10.07012583448785   11.13216770000775
H         4.32940328829181    9.54686750601943   12.07272508060529
C         4.64694633063111    9.54645108304870    9.93556782898758
H         5.14225542030336    8.58608498264962    9.91599530574739
C         4.45436772587872   10.25513940148704    8.76318868601243
H         4.80801857305560    9.85674702972257    7.82293067804131
C         3.79723879601346   11.47667063712750    8.79254350664096
H         3.64255050387933   12.02666869605519    7.87471923870719
C         3.32627879131760   11.98797509867596    9.98570768870508
H         2.78082925257535   12.92257912169857    9.99175107454361

