37
CSD_code = MUBLIG | q = 0 | S = 0 | Stoichiometry = C17H18SZr | MND = 12
C         0.78460733798239   -0.09155396608193    5.88514829168769
C         0.51712528865536   -1.44044519698661    5.90151159229649
H         0.96814020648653   -2.13771719124411    5.20314568650873
C        -0.38421058542446   -1.89097160877804    6.90027817311618
H        -0.67614633074784   -2.92008725832457    7.02360336535894
C        -0.83462819842999   -0.87901948689127    7.68064997279578
H        -1.51611757978046   -0.91275124449733    8.50693264547418
C         0.70997335046605    0.84839673985593    2.73626531127207
H         0.98687333076042    1.31793211894534    1.77213937133556
C        -0.78275555514844    0.90425883622652    2.98257715971390
H        -1.14146306924769    0.94945280874074    4.00980789253648
H        -1.42591776159540    1.42020345758368    2.27668394186121
C        -0.14688353662554   -0.37919300169344    2.53163643090312
H        -0.36047527020296   -0.71336524375814    1.52132780355304
H        -0.09631232208294   -1.18937215853350    3.25231028879663
C         1.28308440731920    3.46243732339321    4.04269039068581
H         0.62856093621228    3.77413839179549    3.23849544091328
C         0.87451576424551    3.11803386497168    5.34710736384915
H        -0.14506584320458    3.11480458163557    5.71025226504325
C         2.03587634678750    2.94034515162484    6.13659516744928
H         2.05161223034703    2.79057695533823    7.21058757527274
C         3.15599145923315    3.19647243530309    5.31917291953701
H         4.18054154120422    3.27875966426130    5.66200277399222
C         2.69395696084675    3.49760756074455    4.02154829469756
H         3.30094166749946    3.84766276317441    3.19426728582693
C         3.21441397136823   -0.98448405103288    3.60839899613402
H         2.69417055072373   -1.83472535623179    3.18525633278626
C         3.63114522413320   -0.84367957062536    4.94961530591250
H         3.49895290310453   -1.57365159929112    5.73890097569025
C         4.40956137373448    0.32956416332591    5.04325261513320
H         4.97032349768919    0.64133125414583    5.91740718175612
C         4.48875103525815    0.90333981795078    3.75769470350296
H         5.12201981945059    1.73445322442103    3.47238718546497
C         3.73972057279153    0.10300112882708    2.87260678962193
H         3.69892152106673    0.21319630949227    1.79510898813251
Zr        2.04497720773437    1.07294707302951    4.46799654577808
S        -0.15848245260785    0.62780130918441    7.19233697560999

