73
CSD_code = MUBPUW | q = 0 | S = 0 | Stoichiometry = C26H42NOScSi2 | MND = 8
Sc       -3.71640423336367    7.97799967452772   14.15996705421487
N        -3.72201649605779   10.98260747872942   12.41813206667866
O        -4.30472448593835    6.86731599158911   12.16547094772655
Si       -2.72269094506559    6.39782710193230   17.13014396723023
Si       -7.20163829258053    7.75967749306392   14.96046242682288
C        -3.28724010471839    6.14069678999131   15.34547932468351
H        -4.19807382387639    5.52420430966483   15.35668805066821
H        -2.52782718175883    5.54371100615869   14.81391758117963
C        -3.29678207253181    8.13620910096417   17.72904945876537
H        -2.47003039561381    8.72058205207126   18.12081851577069
H        -4.03918154022513    8.06086505711853   18.51677750267945
H        -3.74656263818314    8.70038430682716   16.90386634488962
C        -0.81238929704390    6.31198249530492   17.28851806790480
H        -0.43716115799115    5.32956052663751   17.01833963478510
H        -0.49533181794460    6.51240955212510   18.30727905559928
H        -0.32476471463166    7.03844533142248   16.64613641348832
C        -3.42289989651953    5.11223226928632   18.36973908255661
H        -4.50848410209268    5.10722963537532   18.35373869771185
H        -3.11186407740347    5.32851588414894   19.38720773029574
H        -3.08831937058929    4.10738244479777   18.13114277315189
C        -5.76839864777616    8.82845241875119   14.36578330515745
H        -5.70049640879181    9.69341400093469   15.04753360026496
H        -6.02767121117066    9.25245159039192   13.37889317018696
C        -6.93020087626798    7.26742727685551   16.78855352436988
H        -5.97578903030013    6.76499795440707   16.91487017500699
H        -7.71121707400763    6.60276399700774   17.14472598376833
H        -6.92809048834042    8.14155325166061   17.43157654762942
C        -7.32170146775139    6.13942433795011   13.93287765802338
H        -7.78475533452897    6.30765777170876   12.96485807753121
H        -7.91932062586468    5.39424084757094   14.44800383095793
H        -6.33475466830206    5.71392472927874   13.76750717265388
C        -8.93153429856988    8.58896308755250   14.83755010804362
H        -8.98197537846995    9.47809273334115   15.45845183639182
H        -9.72211245157086    7.91890462784422   15.16197693639215
H        -9.15687520952613    8.89083215666632   13.81856798428302
C        -3.82996432899220    5.58663232077021   11.72798527805524
H        -3.84718103146741    4.90239016849076   12.57937433059207
H        -2.79516930940723    5.69170214433032   11.37351780615185
C        -4.74693019252533    5.15688386460399   10.58885268039062
H        -4.26810623000523    4.44974734410330    9.91628733222876
H        -5.65966694542300    4.71242496324521   10.98582643767573
C        -5.05387702794148    6.50091715786837    9.93567097041273
H        -5.96363373002057    6.49202549572741    9.34133671115175
H        -4.22294033382963    6.81414643399411    9.30246940824782
C        -5.17378188526212    7.41265065850336   11.15334784267372
H        -4.87016357824743    8.44232869336459   10.93977557305595
H        -6.19632967367784    7.41175646558402   11.54687653382949
C        -2.13757384127565    8.85673415400178   12.30759364577814
H        -2.05481496789307    8.51242412314381   11.28640692443724
C        -1.35568402087963    8.36413967887837   13.38708767087351
C        -1.58841109708084    9.15124801955185   14.54627115556964
H        -1.00506528538190    9.11318111514356   15.45502090138437
C        -2.52085489634447   10.15819924475914   14.17831668966113
C        -2.85711315699855    9.96360747066472   12.80463227319283
C        -3.19238216886956   11.34999301955777   14.59546629025170
H        -3.13526023810881   11.82636346321498   15.55649997993236
C        -3.90301792207718   11.79941274921424   13.52569935202743
H        -4.50777635548970   12.68234829481220   13.44967337950112
C        -0.27785608870964    7.32120841131284   13.25634983945493
H        -0.46978810910272    6.66121826862532   12.41024117305675
H        -0.20139408855318    6.71775918084184   14.16042054530324
H         0.68980629298233    7.80175561898866   13.09098487310089
C        -4.38225339919491   11.10577964305649   11.20751943777331
C        -3.79553211624944   10.63191055065695   10.03044981058732
H        -2.79907602421177   10.22153206464134   10.06595725928588
C        -4.46613154697211   10.72510134303870    8.82673663475187
H        -3.99584520233613   10.35935072482389    7.92520992872036
C        -5.72780838851053   11.29395966122510    8.76705764861242
H        -6.24837626364088   11.36680493796094    7.82441395886146
C        -6.31248733805922   11.77441752704798    9.92780008616791
H        -7.29595689369164   12.21976659871052    9.89133707832318
C        -5.65493651807295   11.67969208669447   11.13804546535103
H        -6.13188628309218   12.03564705515775   12.03818248612219

