46
CSD_code = MUBQUX | q = 0 | S = 0 | Stoichiometry = C19H22BrN3Pd | MND = 4
Pd       20.74549153766526    3.96968126848696    5.49637641016136
Br       20.53979306894223    2.48531280339292    7.46015455604148
N        19.64314180358978    5.53035056372422    6.22334571794933
N        23.22575205439077    2.60117351037564    4.65707648448445
N        21.50930062748037    1.38199796676986    4.20640833534995
C        19.05259005483056    5.58444328842847    7.41191715055882
H        19.12201536271938    4.70125339250876    8.03681018133484
C        18.37123847190709    6.70131842371317    7.86317674811406
H        17.91026601476901    6.69483146932536    8.83754118264535
C        18.30500341321850    7.81272017370206    7.03742736339352
H        17.78809019980162    8.70671598870974    7.35387682521859
C        18.91279767044563    7.75761681261533    5.79855152427821
H        18.87338894612896    8.61082901469448    5.14101468202079
C        19.58222971998039    6.59918655059085    5.40051021065387
C        20.24841936308433    6.42779965369920    4.11060997818954
C        20.23658167917748    7.40307298810704    3.11242799728379
H        19.73185737035520    8.34538997804488    3.26907799509426
C        20.86697987224801    7.17230187803314    1.90701486028074
H        20.85431327955151    7.92946153085255    1.13626118121016
C        21.51086022581428    5.96509767344001    1.68920056306304
H        22.00033748068856    5.77925284530658    0.74278176370275
C        21.52955038814983    4.99475701228564    2.67865460775952
H        22.04158534866582    4.06107856859689    2.47023254668601
C        20.90744283249536    5.19610115722552    3.90884165150320
C        21.88294641089292    2.57170631165562    4.71303040191842
C        24.03358925495745    3.68568371813967    5.14906868255045
H        24.74925213155513    3.31844191525240    5.88657019288769
H        23.36439865728860    4.42083975818582    5.62671874793779
H        24.57294565417943    4.16874214292105    4.33132363219568
C        23.69924759307166    1.43697403908799    4.10979653354213
H        24.74430688774138    1.25079718242904    3.97204566147490
C        22.61953236688928    0.67101538160515    3.83003403092109
H        22.55460199006771   -0.30923589234066    3.40452009016298
C        20.16172499076892    0.85239851202713    4.20247221712832
H        19.93232584694482    0.48189196637763    5.21022465765869
H        20.13814670939628    0.00888000059309    3.50638892628395
C        19.11445149607082    1.89236755670764    3.80083959704575
H        19.40910813638330    2.36315676201761    2.85714232016840
H        19.05828346421990    2.67974372737850    4.58553096664069
C        17.72945799460943    1.26811426373266    3.65657033820927
H        17.46729610573561    0.75663557046277    4.58487169479617
H        17.74100484218848    0.52483487999027    2.85535058167584
C        16.68393400398113    2.33315913764979    3.35151197046804
H        15.69748637529991    1.88724160498914    3.25329796039505
H        16.92344263902243    2.84934630495985    2.42424664275786
H        16.65098966263713    3.06882064353527    4.15255363616339

