63
CSD_code = MUBQOR | q = 0 | S = 0 | Stoichiometry = C27H26N4O4PdS | MND = 4
Pd        3.14417315674188    2.65090016488846   10.48561870853434
N         3.47654475922608    1.01728113336620    9.40127177436623
N         3.74177705535887    1.52476072005484   12.26700239640391
N         2.03933002074541    4.34171701388405   12.65473111327887
N         3.88724024690024    5.15353325109320   11.91032665659584
O         5.90030043222502    2.71528440168895    7.44059998337902
O         5.65778392971318    2.11833405493999   11.24055095767983
O         2.41938092687333   -0.51556513457879   12.94381432332202
O         2.58632471933243    1.35236927658335   14.50843581929761
S         3.21223994729784    0.56348810673260   13.47586638466966
C         3.18830947644249   -0.19069492458480    9.87692964554860
H         2.31720569919990   -0.27425902918881   10.52039116379053
C         3.97260191380271   -1.29907592759008    9.59909440531444
H         3.70471929665129   -2.25865477570539   10.01166567581721
C         5.10591947949705   -1.14032632125789    8.81354064693083
H         5.75292099289893   -1.97885452583645    8.60304072489686
C         5.39064774657001    0.11397204194660    8.30558698421620
H         6.25626992883222    0.30188289299319    7.68930270764342
C         4.54681652237863    1.17949506799536    8.61464005467854
C         4.81894945958016    2.50943323427979    7.95708842329350
C         3.68189674297915    3.45405371224994    7.81810304468233
C         2.72229147674181    3.62555168753188    8.82930286311986
C         1.67018509491049    4.50642233501882    8.57745220156652
H         0.90919463914044    4.66955534204748    9.33263977804812
C         1.56932540308742    5.17818198627092    7.36963529806408
H         0.73309611263331    5.83992984349746    7.19162935356016
C         2.54275173347688    5.02126352802623    6.39291067514516
H         2.47052483881251    5.56393888616678    5.46171161196930
C         3.60301060737696    4.16933125687286    6.61998054555361
H         4.37768306667404    4.03432161259799    5.87895974377259
C         5.06051298060595    1.48426681217782   12.11803893734685
C         5.73458688157912    0.59981371726631   13.10996546335988
C         7.09272644719181    0.35177297439800   13.22632079457534
H         7.78604662706505    0.82779537171492   12.55016414850537
C         7.51826883453440   -0.51223651564045   14.22456593490130
H         8.57205372887858   -0.72063935169756   14.33713984432083
C         6.60850213956614   -1.11346787231918   15.08308503972685
H         6.96191962814543   -1.78228865394502   15.85363588602944
C         5.24529456449578   -0.86538482341199   14.96304471394385
H         4.52707895470717   -1.32680157455832   15.62241137235450
C         4.83626545494120   -0.00684970962391   13.97087338803044
C         2.95700839661587    4.21050056382150   11.68491534677503
C         2.38638860413796    5.36791017531548   13.48954588343573
H         1.79817342847797    5.64255478785947   14.34075102859752
C         3.54718205140689    5.88522013513481   13.01482911363199
H         4.14605711715446    6.69595541371763   13.37625136286929
C         0.91632020373644    3.45477228277603   12.81520635186081
H         0.01140783742723    4.02330091316255   13.03228583039797
H         1.11591775580128    2.74779571196410   13.62621236784831
H         0.79496706517702    2.88801561103820   11.87897647073296
C         5.03429782856186    5.35614035876594   11.05565834506179
H         5.30913284965908    4.37694686887130   10.63213142238335
H         5.86552548638574    5.72636615576488   11.66086045899770
C         4.71481310033243    6.33292522024339    9.92126800766929
H         3.78277624425101    6.01635806227775    9.44693074398710
H         4.56738903671724    7.33767709487278   10.32636681729177
C         5.82481478850879    6.35149679856390    8.87424513427747
H         5.97238000773794    5.33913987455028    8.49584236456618
H         6.75928081878868    6.67682188689109    9.33669720964423
C         5.47745838926552    7.27686265510073    7.71547747734659
H         6.27204800163405    7.27138480604889    6.97412499712188
H         5.33932462453815    8.29833551644581    8.06472468839661
H         4.55776469568281    6.94816781999148    7.23712938898054

