25
CSD_code = MUBXOY | q = -1 | S = 0 | Stoichiometry = C12H4Cl4CuS4(1-) | MND = 4
C        -0.31403190316272    8.97852627229367   10.77649869271865
C        -0.50893180179060    9.39028283941672   12.09332586822582
C        -0.13270694804929   10.65308874008818   12.51438542203459
H        -0.29767711867019   10.94376333555639   13.53930376670201
C         0.45098842057212   11.52919588012427   11.61486915533696
H         0.75080725848552   12.51768016171399   11.92331683132475
C         0.65156925936749   11.13194369956106   10.30511125944897
C         0.27574298378926    9.86339744576714    9.86796226075194
S        -0.79763262437966    7.37938746100303   10.26162940076215
S         0.53573456267566    9.37915774967522    8.20845537576961
Cl       -1.23337984246993    8.30212563244810   13.21470820966680
Cl        1.37921601311676   12.22317986892669    9.18881770647006
Cu       -0.26938842977132    7.33755863373395    8.13016599671496
C        -0.22384539882754    5.69611877380331    5.48404300027342
C        -0.02913790570139    5.28444203431167    4.16716495340923
C        -0.40549448599033    4.02168439841740    3.74606111181353
H        -0.24059115873024    3.73103981744401    2.72112251933994
C        -0.98919045690368    3.14557344163394    4.64557366080167
H        -1.28907782983339    2.15711253300791    4.33710630506152
C        -1.18963785967909    3.54277930314039    5.95537351228357
C        -0.81361868771296    4.81125132746106    6.39257888223865
S         0.26013417623332    7.29509220870771    5.99904560802229
S        -1.07320081968784    5.29536248287330    8.05220247859646
Cl        0.69532143913325    6.37261146810521    3.04579659091635
Cl       -1.91727084201320    2.45154449078570    7.07168143131607

