60
CSD_code = MUBYAL | q = 0 | S = 0 | Stoichiometry = C27H26N4O2Pd | MND = 4
Pd        0.94600253354941    9.55649258568725    3.09441675890537
O         0.68244399054335    9.99952579149046    6.94878490275012
O         1.71147813696495   12.17055049372331    3.11517208483057
N        -0.74378490958965   10.42029214076874    2.37627814443607
N         1.06888699012167   10.83259792905318    4.84264161257676
N         2.79767568532519    7.82509943841658    4.69252693058109
N         3.83678562450205    8.96983179915333    3.19365318524317
C        -1.50069295112351   11.29567426010093    3.02196365934587
H        -1.34191599322050   11.38300689142493    4.09183688403926
C        -2.46089980956553   12.06709750197020    2.38961297882899
H        -3.05624165264946   12.76630653344772    2.95482593464546
C        -2.62296560692323   11.92359200413329    1.01961797992034
H        -3.34632217487972   12.52254786115914    0.48600285638610
C        -1.84876112874583   10.99777065788284    0.34815558107461
H        -1.96027898573498   10.87025642280342   -0.71654964772795
C        -0.91096127747068   10.23875137579500    1.05127815072245
C        -0.07770434947401    9.18485080296934    0.47265236164597
C         0.86935519286806    8.60132213163154    1.34458077758012
C         1.63141880262011    7.54652065348723    0.84655918877267
H         2.36140606668113    7.05528723372181    1.48116622783167
C         1.47145059911197    7.08596978203769   -0.45134872231294
H         2.07086570969454    6.25922177545893   -0.80777905454972
C         0.54842420865397    7.68046712740284   -1.29659782975654
H         0.43085901261145    7.32440227423469   -2.30993756963447
C        -0.22736080601179    8.72501852212019   -0.83594385643050
H        -0.95341510154711    9.17460997906285   -1.49792226328129
C         0.95720125202477   10.91782846083921    6.19471960889861
C         1.26269122422594   12.33572568046603    6.58390192907266
C         1.26766725926193   12.97468215611467    7.80361094675134
H         1.01646705345628   12.44387425212143    8.70932823370900
C         1.60548386747791   14.32507765236000    7.82275669862375
H         1.61652679416475   14.85669173226436    8.76345200059374
C         1.92812009540992   14.99975540872055    6.65631069983409
H         2.18668663030613   16.04784399734737    6.70404669088685
C         1.92529019386928   14.35100486450611    5.42480840663009
H         2.17686391246780   14.87209901324377    4.51355634201262
C         1.58773387541515   13.01560113731616    5.40855421413573
C         1.47426666673860   12.01376754695370    4.31025674708762
C         2.61612166748407    8.70464871681704    3.69089514148879
C         4.13083660602579    7.53866877087558    4.81909950882234
H         4.50633849645266    6.86237380756938    5.55964317171120
C         4.78621989285671    8.25536143649939    3.87418538030100
H         5.82971865321347    8.31291477336642    3.64146866663877
C         4.08385267166563    9.87946654924494    2.10485194562853
H         4.93671324763720   10.51757334330027    2.33745850339775
H         3.18842056731350   10.50301531003773    1.96485066705982
H         4.28664928371373    9.32897769345947    1.18281387317489
C         1.76539061835881    7.33857683753000    5.58558867782494
H         1.50891653316501    8.13411608034653    6.29813387292714
H         2.17691648539799    6.48763365466442    6.13594270462666
C         0.48889868965198    6.92746510014755    4.85063409814076
H         0.72428434824256    6.19504064049398    4.07253888336566
H         0.04904699370798    7.82763843624120    4.37050377202778
C        -0.54111934133771    6.35397567219988    5.81912334285309
H        -0.15319918978890    5.44051633728739    6.27757298963103
H        -0.71828048564922    7.08027939243015    6.61411218526537
C        -1.85180259842282    6.04975045660048    5.10488144775578
H        -2.58825278258019    5.65773238437509    5.80204457913605
H        -1.69785852638659    5.31509963005311    4.31708810173996
H        -2.25195846224738    6.95495910460647    4.65281871175655

