56
CSD_code = MUCCUI | q = 0 | S = 0 | Stoichiometry = C27H23ClN4Pd | MND = 4
Pd       14.67200196234438    0.60384125870210    8.87590176097263
Cl       14.31929867318902    2.74398123919591    8.48266384389557
N        13.19980887995441    0.14294141793287    6.03602894875273
N        14.04920103687438   -0.38452743242400    6.94745609872578
C        14.65566810029183   -1.53592690919796    6.84319887247791
C        15.37999052569094   -1.95474711132375    8.00311864758605
H        15.93907278494242   -2.88521840113508    7.97695402958969
N        15.34435960669449   -1.20004436922892    9.07034600358126
N        15.99615900767275   -1.46698472516767   10.20683814788790
C        12.24989233392498    1.00733455571967    6.60290437068909
C        11.81228631147432    0.76054718678752    7.91121986042332
H        12.13115226224804   -0.13849348115662    8.44588083917307
C        10.91186171084901    1.62606127733709    8.50885576814940
H        10.58410755954176    1.43476159293923    9.51989253009542
C        10.43576059145430    2.72765791974648    7.81996350945093
H         9.74040620510911    3.40376584705804    8.29304255130042
C        10.86191283002293    2.96412728566518    6.52307536168959
H        10.50361007151685    3.82942225059262    5.98581301447466
C        11.76647151361214    2.11703284489254    5.91461981802590
H        12.12314093953997    2.33127129853026    4.91855739402523
C        13.46690785233859    0.13740719556086    4.65956425004613
C        14.77675093931594    0.27056294284762    4.20244223318248
H        15.57528049378713    0.41504538235682    4.91747513958845
C        15.03843906258133    0.25809413508706    2.84534037482922
H        16.05472636661412    0.36885965339770    2.49715092309301
C        14.00354670837002    0.11841832737746    1.93608249826028
H        14.21106089560155    0.11072440947348    0.87700166879969
C        12.69867882971656   -0.00218553679042    2.38938069378541
H        11.88935587148331   -0.10683727370425    1.68222335703505
C        12.42504049472431    0.00456138601020    3.74292922680771
H        11.41097878144296   -0.09309996680515    4.10150827905289
C        14.59775400418186   -2.44462804876767    5.65094626947734
H        13.59638898930982   -2.44332658565370    5.22210661268362
H        15.29007433004949   -2.11964806764218    4.87270738574870
H        14.85824595267750   -3.45912114249403    5.94232335264611
C        16.71317841333776   -2.66624980613757   10.41786468331427
C        16.05580670678999   -3.89189451871088   10.36051217237940
H        14.99365676575260   -3.92034404389850   10.16400925417652
C        16.76294016141029   -5.06135695746417   10.57125355163283
H        16.25005367413015   -6.01052574855643   10.52890631717331
C        18.11996893189305   -5.01566499001503   10.84541910280842
H        18.66741137038894   -5.93061342545211   11.01294779219727
C        18.77304935431944   -3.79524057722833   10.90715961180086
H        19.83072973836875   -3.75780318207664   11.11995321780441
C        18.07704451341959   -2.62051610705973   10.68977248033673
H        18.57776659762454   -1.66483612221080   10.72857645974841
C        15.96255711790433   -0.42623907541414   11.15354158099623
C        15.38222693346204    0.78935725768891   10.73251656085759
C        15.31796141816442    1.83148937964038   11.64323059027203
H        14.88428262615509    2.77611043732830   11.34261835521187
C        15.82063956370163    1.68131501939666   12.93080846639712
H        15.77537247364935    2.50912421498512   13.62289816322624
C        16.37317243168297    0.47763403146107   13.32983579397558
H        16.75140899220802    0.35868753684378   14.33448555258825
C        16.44077817200269   -0.58764622581954   12.44779881748847
H        16.85470156448659   -1.53361745287531   12.76637783966802

