55
CSD_code = MUCCOC | q = 1 | S = 0 | Stoichiometry = C27H20ClN4O2Ru(1+) | MND = 6
Ru        2.34575941675938    7.89958319776040    2.92153779727557
Cl        8.75283181425683    4.33423312861831    3.09144125268656
O         4.10891305862054    7.74509077052022    3.99351853905269
O         3.06350888320503    6.56998512435335    1.51792516179828
N         1.72214720973893    9.06120524959713    4.38733523508718
N         1.73205389159696    6.50355686909936    4.18917968645304
N         0.74419311067875    8.10439655205557    1.77635329631965
N         3.02318185820647    9.28163838742430    1.66976396674814
C         5.08372436485958    6.96107331681727    3.73167587796978
C         6.17699620729434    6.93528966717209    4.64657774352333
H         6.10011157152774    7.57577082557825    5.51239274550814
C         7.27140770223327    6.14722740904193    4.45370531708680
H         8.08165031440742    6.14812045978939    5.16585025200165
C         7.35387947662458    5.32362631488285    3.31647587381098
C         6.33861525075918    5.30936618429617    2.40473735576137
H         6.40372526485877    4.67702757453154    1.53251001163745
C         5.18077666141582    6.10931327878282    2.57641099875259
C         4.17862181979880    6.01508897456451    1.58015755783178
H         4.41972623590396    5.34333290432375    0.74161372862541
C         1.63576488347651   10.39200227119084    4.37211029110266
H         1.77755445825372   10.87268450282661    3.41098853401841
C         1.38392721011796   11.14303101667637    5.50323447182591
H         1.32645220243096   12.21707065103668    5.43669485465827
C         1.21727440706491   10.48982720020531    6.71906406723089
H         1.03234614315354   11.04626890080345    7.62372107155190
C         1.28775968444961    9.11015590511570    6.74288508422546
H         1.15373476104843    8.57751631790842    7.66965460074685
C         1.53629043798679    8.41178332796385    5.56167121992184
C         1.56905646337142    6.95465185015962    5.45378661397791
C         1.41074674900647    6.06969077421198    6.51963430228696
H         1.29846218028263    6.44141234332375    7.52443432310706
C         1.41396293635051    4.70810836253437    6.27922126039867
H         1.30458892854353    4.00823999247857    7.09208983489078
C         1.55647361037252    4.26016035964533    4.97147791733965
H         1.55465070885541    3.20785919572158    4.73965660063767
C         1.71130713746538    5.19228825073642    3.96269776997868
H         1.82266260451466    4.88385048782675    2.92970485787313
C        -0.44142933884972    7.52143652167703    1.95617714881704
H        -0.57343485450025    6.97978894056407    2.88545369893932
C        -1.46021251349543    7.58366570673691    1.02583706507405
H        -2.39930403756637    7.09190373701110    1.21953458997368
C        -1.24656917476364    8.28117806493745   -0.15744024967932
H        -2.01621258801591    8.34081472144401   -0.90997709668921
C        -0.02651175900561    8.90169538164207   -0.34742764260468
H         0.16406578507239    9.45457501644970   -1.25217656703904
C         0.95663346089539    8.80513482152275    0.63654481051349
C         2.26066994174257    9.46310584979348    0.56848189156776
C         2.70860521855770   10.24641499143817   -0.49448936569841
H         2.09857132935757   10.37457117719134   -1.37306194536367
C         3.95047563135999   10.85040382847032   -0.41690538642958
H         4.31688543311279   11.45315116816319   -1.23249599320990
C         4.71419386729691   10.66811310200558    0.72944073257728
H         5.68444498660846   11.12555712746070    0.83144537498660
C         4.20993730012952    9.87731689968228    1.74549298055949
H         4.76955169256963    9.70654504423074    2.65767587999779

