40
CSD_code = MUCDET | q = 0 | S = 0 | Stoichiometry = C15H17MoNO5S | MND = 6
Mo       10.57812765110662    1.65889443230619   11.30320873496092
S        12.47359170972593   -0.33982295834266   10.31738767805717
N         8.78494643221932    0.68456494543535   11.96876789704684
O         9.94577065797274    3.08922104204867   11.83012209716617
O        12.10215533463398    1.78256355793316   10.61997362529238
O        11.11221595034187    1.10572368780352   13.04965702608665
O         9.63274078986781    1.48953408253458    9.72829511692712
O        11.09929982976963   -0.46736991047880   10.92684014614284
C        10.50668666241534    1.15190022107592   14.19446288148361
C        11.30179935818142    1.31262408071727   15.36675253700436
H        12.36879210255402    1.41108522469332   15.22616509604325
C        10.73490841884515    1.36321318181839   16.59826914712695
H        11.34878939048540    1.49578983393029   17.47801273060093
C         9.33162080538659    1.25826848518479   16.76785973584677
C         8.76202691310296    1.33953400307701   18.05124028747728
H         9.41875530605783    1.47267548598522   18.89879754614142
C         7.40686728059388    1.26016781985107   18.22736022168730
H         6.97401810302818    1.32421173019450   19.21407298955339
C         6.58055068501695    1.10567964978356   17.11151200704725
H         5.50978558967215    1.05821965604048   17.24518628173252
C         7.11240613433274    1.02071736335494   15.84959998324740
H         6.43358369876951    0.92345091608851   15.01754914155038
C         8.50193949582165    1.08058875324469   15.63019064009968
C         9.10589801400985    0.99715491262457   14.32647935709368
C         8.33115058013025    0.69226232973155   13.17114056901466
H         7.28786045359222    0.40417722573652   13.32526399501643
C         7.92536194331898    0.35164650492031   10.86792383794082
H         6.86143564176191    0.35245196581286   11.14193831019216
H         8.21705379088054   -0.63808623651062   10.49231684689784
C         8.25895915874673    1.39288170455577    9.78198239113700
H         7.85141452236710    1.08459246798821    8.80575690702082
H         7.83503765073698    2.37240189092322   10.07564159179651
C        12.82584380763784   -2.16686307391670   10.11463354808491
H        12.65228844641639   -2.69706303525383   11.04248812569182
H        13.84842906251911   -2.30073655793616    9.78266814177712
H        12.14848579032408   -2.53848594101578    9.35420926308013
C        13.59628322864533   -0.18941956300710   11.75137135178816
H        13.59960158490467    0.85659607314696   12.04645734206239
H        14.59055303922774   -0.50779481171011   11.45817703898292
H        13.20366498487528   -0.81345114037530   12.54836783409731

