34
CSD_code = MUCDIX | q = 0 | S = 0 | Stoichiometry = C11H15MoNO6 | MND = 6
Mo        3.60105694947281   13.44436185599760    2.01351277980646
O         2.40027742746216   14.57359389481860    2.02164650642787
O         3.19243890627032   11.88018007169402    2.35842220734446
O         3.74173972299118   13.35208801618691    0.18161055372754
O         4.40448288886904   13.88054229393460    3.63556279205756
O         4.75054717602125   15.77139472086325    1.48178961506247
H         3.79698870696783   15.78268347966291    1.28434451773221
O         4.14930887443400   14.35314025467162    6.19409206252080
N         5.75010716861794   12.90326920006163    1.63432028464951
C         4.62161453221086   12.45874367438611   -0.39873466448648
H         4.65566668213010   12.60633060520309   -1.49023460535943
H         4.29859626255846   11.42577046328451   -0.16890462121368
C         6.00190575475309   12.71593499580506    0.23145076190098
H         6.71329424047253   11.90358796786724    0.03371408455308
H         6.39454438414120   13.66041301228540   -0.17079955309853
C         6.60736521481481   12.52405726118280    2.50647299877194
H         7.53764697300000   12.04399213725186    2.17942211184339
C         6.45768359331508   12.71349436907676    3.91536392490229
C         5.33917756426175   13.41676962787330    4.41642609926680
C         5.24305027654225   13.64203911426022    5.82323228783072
C         6.21336415339275   13.14271979764438    6.66727027369894
H         6.14247117835090   13.28941667965950    7.73339914901493
C         7.30746690386503   12.43851549132050    6.15514895194544
H         8.05219599378012   12.06078471998661    6.83812088178392
C         7.43633316003769   12.23297665364056    4.80779201443558
H         8.28475040922745   11.69419629682548    4.41329355393751
C         3.89815315363506   14.53117934776914    7.56744199481636
H         3.79847078687064   13.57171400954108    8.08403297275088
H         2.95478946337804   15.07105899198528    7.62445908119172
H         4.68533574465479   15.12373716735286    8.04603168332954
C         4.94749257142541   16.62842147120195    2.59629925166368
H         4.28881792721682   16.35888884983219    3.42821419319267
H         4.76362185567697   17.66888527578545    2.30716546847740
H         5.98794339917978   16.52481823108657    2.90782038552013

