41
CSD_code = MUCDOD | q = 0 | S = 0 | Stoichiometry = C16H17MoNO5S | MND = 6
Mo        0.07199355217165    0.49275100109398    3.72837490053577
S         1.37956178963955    3.17784676605080    2.50695088377029
N         2.20454645469955    0.28468641931242    4.55959507043113
O        -1.25702788677924    1.13898321426199    2.99071924723807
O         0.05210224010242   -1.15914413678941    3.71226530586443
O         1.18769537655322    0.66247120886348    2.10548210243374
O        -0.30391529951414    0.80122972851458    5.44988563523546
O         0.94614613894832    2.60883162961788    3.81942409208888
C         2.04458942127315   -0.23356109764202    1.68865271850198
C         2.08537957505955   -0.58688981571214    0.32730170990249
H         1.36710777141418   -0.12212178908751   -0.33270941501397
C         2.98035159896636   -1.52303684989265   -0.13455216035817
H         2.97884205478406   -1.79568384635843   -1.17971055319842
C         3.88965673706294   -2.12749970605261    0.73376544616027
H         4.58639150097288   -2.86196063968587    0.36057750050510
C         3.89005896736062   -1.78185643479137    2.06272647192909
H         4.59171617968483   -2.24321048999712    2.74363039682477
C         2.98091702198492   -0.83867835291040    2.57026231092697
C         3.05105276594493   -0.46614476126250    3.94652732695191
H         3.91365746831427   -0.85749266416722    4.50046143747118
C         2.51665258668643    0.71419431242396    5.85289718542905
C         3.78634091572236    1.23312695075990    6.11800586865935
H         4.50169461092280    1.30832358406028    5.31034154252685
C         4.11558841661487    1.68603588311447    7.38123847604485
H         5.09955143167330    2.09091670606603    7.56558984056854
C         3.18321816455866    1.62260816130374    8.40226208585259
H         3.43580026880102    1.97143302182848    9.39193198917794
C         1.91683024969365    1.12536685763580    8.14422826925378
H         1.18293937842888    1.08779445222970    8.93595425358655
C         1.56628246821386    0.66746289507378    6.88288969980421
C         0.17668485657744    0.16711893566953    6.58170329372738
H         0.19561834535561   -0.92744176649750    6.39240000705612
H        -0.48963358880410    0.37343679678086    7.43652280046065
C         1.54483343929240    4.97121779827245    2.92969092894202
H         0.66368475529764    5.27890531072599    3.48129233674565
H         1.65758919051514    5.54803354779578    2.01927351167274
H         2.42411264297803    5.09183758135938    3.55384981432950
C        -0.12406556841019    3.35102675737059    1.49365833085841
H        -0.74848899366368    2.48769578582601    1.75521771787877
H         0.16076344906570    3.31331517471273    0.44787402953354
H        -0.65032044816714    4.27157187012005    1.71744758969706

