45
CSD_code = MUCDUJ | q = 0 | S = 0 | Stoichiometry = C17H19MoNO6S | MND = 6
Mo        8.06524786424941    3.86879022865772   11.23615998765767
S         6.89171555856860    1.22337758342346   12.64403896248373
O         9.45522975687732    3.26808699461642   11.88765299170398
O         8.06697088067580    5.52133776722377   11.20139052452681
O         7.02343021301473    3.73410431782789   12.90088511555759
O         8.32884556684188    3.50932942419052    9.50044203672866
O         7.22627018483962    1.73415172019601   11.28129271517037
O         7.19642658335367    4.34481403258872   15.43602250526566
N         5.86442915546452    4.03687644016288   10.52817631584757
C         6.18461541495902    4.63196762748427   13.34735648028104
C         5.20401406556918    5.22366542735004   12.52256238389883
C         4.33183266924501    6.18845424158696   13.06358379474026
H         3.59233559346784    6.64290510713715   12.42105018855751
C         4.43131393061307    6.55695278424866   14.37830038866828
H         3.77219562542632    7.30739465336194   14.78647872649887
C         5.38468945285456    5.96567551480012   15.21274479607405
H         5.43754345573411    6.27716125221622   16.24414233215187
C         6.24247664656737    5.00416606826226   14.72193623918508
C         7.45424359194018    4.77220933023669   16.75129775356096
H         7.72086160419545    5.83275489406426   16.78332136433208
H         8.30021128493087    4.17856687322362   17.09369126737474
H         6.59576385138800    4.59211901600124   17.40793094039265
C         5.05608916290613    4.81068410675381   11.16322743453512
H         4.16401244037737    5.18820410204369   10.64813503616816
C         5.47930104807102    3.56138144341036    9.27224502195377
C         4.20070712213662    3.02463864674394    9.10242375812450
H         3.53511690634078    2.97731265013074    9.95352295558076
C         3.80216698498317    2.52057463771151    7.87926565965361
H         2.81272545287593    2.10231677980588    7.76885766779437
C         4.67282839660017    2.54979829886380    6.80364065460812
H         4.36619766559572    2.15995909009166    5.84501937319045
C         5.94717374737864    3.06646142315309    6.96701004644657
H         6.63271467011169    3.07875177551217    6.13226460377422
C         6.36662231907205    3.57640784282852    8.18661164237290
C         7.76489028585467    4.10289018354931    8.38485819359076
H         8.37856293140296    3.88062920782654    7.49500106731166
H         7.74125065751247    5.20221473695423    8.54299626021151
C         6.85231861747596   -0.60348209065893   12.34000230233841
H         5.97918792720979   -0.82473472312755   11.73540466185059
H         6.78738588370707   -1.12930556136018   13.28502964603073
H         7.74788346824704   -0.88679856121063   11.79941566702763
C         8.43622114462470    1.19232489797784   13.60432015609187
H         9.20332073300428    0.67001383142974   13.04259999119783
H         8.23884247131345    0.70872695793778   14.55554061665093
H         8.74191701241532    2.22786902478938   13.75154977283411

