86
CSD_code = MUCGAU | q = 0 | S = 0 | Stoichiometry = C43H31F4IrN4OS2 | MND = 6
Ir        7.93311898405472   10.69373073569675    6.24550755316242
S        13.47178385569125   13.34961140663103   11.77683118058927
S         9.87846788231219    8.22180599026337   10.83355530867575
O         8.78209285223286   12.03067365701995    4.75336375869199
N         9.05104993995265   11.95740131103546    7.65108041178351
N        10.40798616359922   13.60503410122707    8.15940889643645
H        10.87762549183675   14.49262500431280    8.10932524782613
N         9.46186333548537    9.42544105254468    6.25814511689097
N         6.37540822866894   11.96111353843150    6.09955107636093
C         7.18358654173245    9.27413843036527    7.46008598744702
C         5.93078115390947    9.24086370623389    8.06506048969610
H         5.25055837799753   10.07460625146867    7.98038403033606
C         5.53115469627872    8.13142694896739    8.78203333297435
C         6.33297474712059    7.01313075309460    8.92618637769105
H         5.99947241490883    6.14719250423424    9.47318456169363
C         7.57999430946480    7.04512423540042    8.33816756521368
C         8.03068663915240    8.14554683711406    7.61115516242236
C         9.32612893526433    8.27239017981179    6.95909596521930
C        10.36981170377169    7.34848643927117    7.00651302947448
H        10.26444962370666    6.43768503851374    7.56988456030542
C        11.54439615443217    7.60542492916618    6.32509645820118
H        12.35606893175185    6.89432837321306    6.35161439042789
C        11.65992401175271    8.78580908895685    5.60374896058692
H        12.55610045309021    9.01940312426487    5.05177174915701
C        10.59311033316593    9.66357998923863    5.60045356857139
H        10.62630264976880   10.58845195503081    5.04032330660563
C         6.93927744208747    9.79846456475689    4.74900250133810
C         7.21344697500833    8.58683936741026    4.12868374781533
H         7.98133509902789    7.92487375327685    4.49872338619137
C         6.49477650452927    8.19836560343341    3.01448113893552
C         5.48833818883676    8.97905408890803    2.47594489901051
H         4.93267224757821    8.66455190404624    1.60828149888802
C         5.21648680199742   10.18282383719726    3.09312168092625
C         5.91654615370005   10.61856775702391    4.21782763769383
C         5.68234290354659   11.86327646681239    4.94060395668764
C         4.84585760922293   12.89976244912533    4.52665891686913
H         4.32527916364285   12.83603086927416    3.58739478866367
C         4.69975007358867   14.02369246788782    5.31659255001150
H         4.06883388547262   14.83791275413838    4.99515465405761
C         5.36841427978573   14.08070039259794    6.52990166475739
H         5.26631941555397   14.92730576893288    7.18916128882216
C         6.19407007424397   13.02807130482096    6.87338254501630
H         6.73409043348529   13.03895796262026    7.81001955978403
C        13.34959404621934   14.14747500047741    9.10727489178714
H        13.12788993220109   13.65651375596888    8.16019927784176
H        14.42736305378652   14.14335522674356    9.25533442392355
H        13.03157579779247   15.19080899514054    9.04555640171058
C        12.67859876234785   13.44251453531021   10.23606480073918
C        11.47506861023559   12.78842624996435   10.26122031977464
C        11.19748357177349   12.21005352645700   11.53572581055637
H        10.29265250800020   11.66893806218497   11.74347286062808
C        12.16722643060990   12.42199983557334   12.45540193619152
C        12.21399588214820   11.97754774239901   13.87271395507765
H        11.32556918183945   11.39529465425223   14.10471749222093
H        12.26043880138648   12.83408523757387   14.54500389106210
H        13.09523132149150   11.36304097897831   14.05486738877966
C        11.87278383255615    9.48781726063370    9.33064446910399
H        11.96749743362704   10.09922714899965    8.43520315812951
H        12.20680754754141    8.47643169930049    9.10923904532022
H        12.52952214166612    9.90145864966099   10.09798350534312
C        10.46175611901755    9.48484274206614    9.80077585936317
C         9.48666782739778   10.40917857751604    9.56115301621620
C         8.26293662551011   10.10510092134558   10.22053889878040
H         7.39146176446195   10.73018775794876   10.15143757301995
C         8.31367114035416    8.96822407941083   10.95717781572908
C         7.26372943534759    8.37510718573084   11.82714867474244
H         6.28792346217264    8.77328313914694   11.56061690147811
H         7.45838799682273    8.60951131773210   12.87506744109204
H         7.24718306812727    7.29216887198452   11.72695720468955
C        10.57388329008509   12.65706138373534    9.13972267480660
C         9.71026276486488   11.63678311988308    8.80546054281283
C         9.47917267160857   13.15975358590257    7.27830824170137
C         9.06409870512457   13.94528062167256    6.14044935003396
C         8.73144535632128   13.30216365978281    4.91078286920291
C         8.38096402448080   14.14575454405456    3.82881911299918
H         8.13048082721594   13.66708594324504    2.89319305610283
C         8.34175938892019   15.50966171374153    3.95822738705698
H         8.05265982735887   16.11972701069051    3.11389986703439
C         8.65973128050853   16.12011729010464    5.16963059400206
H         8.61751117134360   17.19420965024429    5.26810722378064
C         9.02723336919708   15.33714432971713    6.23969688040875
H         9.25758641834769   15.80590521571782    7.18904750038795
F         8.35091583066070    5.94423042612402    8.49017125138719
F         4.31443197826327    8.12785422596318    9.36923010122261
F         4.21939296927846   10.92479628219281    2.55778653799388
F         6.77701816963572    7.01680095080005    2.42770533395478

