39
CSD_code = MUCGIA | q = 0 | S = 0 | Stoichiometry = C20H12BrClN4Pt | MND = 4
Pt        7.60162586126970   -7.32667983595062    6.04227256918795
Cl        6.03379995906830   -7.43939084572327    7.75549925989261
Br       12.13244685909301   -7.03355149612010    1.06835564036041
N         6.31115576318060   -6.25884281372427    4.96953428550831
N         7.21301021984104   -7.04812966934230    2.86389655216681
N         8.85815285494396   -8.39133386317461    7.16038097868147
N        10.81199326444427   -7.40407989896946    6.12236609032911
C         5.27491856700524   -5.59973684677120    5.49458432599127
C         4.12452920732162   -5.28473032371120    4.77725767713288
C         3.98672237473686   -5.66835015906689    3.45745628308053
C         5.07894466209350   -6.29422827958657    2.86539160288556
C         5.39063821820422   -6.77763274105258    1.56516897968715
C         6.67780866585722   -7.21093626541098    1.60541273224400
C         6.23299887726531   -6.52600726425235    3.66065400159802
C         8.47853536837760   -9.13899252443017    8.20001849179057
C         9.31858470991823   -9.45493591672489    9.26385384430104
C        10.61508652748795   -8.98018251032937    9.30660470707396
C        11.05944038910461   -8.25988516306221    8.20258752073385
C        12.28885454012640   -7.66690334574663    7.80448390081555
C        12.10020973352078   -7.17539831083539    6.55187945747992
C        10.14694753327255   -8.03136190423148    7.13806217807950
C         8.57644723699882   -7.13360864100841    3.20491517270729
C         9.50653212902355   -7.04738400889579    2.17154891826855
C        10.84984954205048   -7.11421011705062    2.47651377865968
C        11.28385902545779   -7.23721133220211    3.77972881210677
C        10.33942645901168   -7.26895142617403    4.80306871687573
C         8.95933200008120   -7.23380448773193    4.55138224546599
H         5.34695040637277   -5.33900505605003    6.53998173242796
H         3.32895729044543   -4.76251012887534    5.28354757224175
H         3.08142395708413   -5.48008240376213    2.90175787663821
H         4.73607499086424   -6.78932372895870    0.71765493161467
H         7.24883892673246   -7.65849627296410    0.81681299681236
H         7.45223095090344   -9.47466886970780    8.20529383055156
H         8.92530376073396  -10.05176111502760   10.07076758912763
H        11.26278104592959   -9.16930589874359   10.14835816013633
H        13.18988643403093   -7.62484179169495    8.38173677211124
H        12.79959254901511   -6.64361005587707    5.93835834301787
H         9.19935711692839   -6.91475241796116    1.14746859281198
H        12.33825202220176   -7.32178226909947    3.98438287940437

