39
CSD_code = MUCWUD | q = 0 | S = 0 | Stoichiometry = C13H22Cl2OTi | MND = 8
Ti        0.98071086479819    2.04894895498010    7.62892664966706
Cl       -0.89659561881000    1.38689412731460    8.53250416385174
Cl        1.19328686825260    3.84807461486636    8.84965050172914
C         2.33704579357028    0.68671708744927    8.90842267433899
C         3.15752215063033    1.62897601361622    8.23416167262496
C         3.01108597102221    1.41993017732347    6.82853252366609
C         2.10666392522324    0.33981555217947    6.64099965095947
C         1.68743401702915   -0.11016079402753    7.92829402719517
C         2.21449130866726    0.53007625674654   10.39704422040558
H         2.29399187175252    1.49662921287896   10.89749554802749
H         3.00427468042027   -0.11959908055630   10.78182693711919
H         1.25254105075964    0.09007550219291   10.66025088153986
C         4.14810432929876    2.56339936255340    8.86542889935888
H         5.15176170136602    2.13537009859718    8.80371732786666
H         3.91297869137527    2.73250059627556    9.91452262359744
H         4.15738888857872    3.53022662694579    8.36073925456771
C         3.77765475476025    2.14363101050537    5.75941011730861
H         4.71635814571863    1.62545621672286    5.54741575964646
H         4.01502039342528    3.15913103335155    6.07692208969359
H         3.20132775683642    2.19650751763102    4.83551109130114
C         1.71564582412414   -0.29980415624473    5.33964891011423
H         2.03810168487026    0.30716671509628    4.49567225315021
H         0.63215914964648   -0.42595387463449    5.27932569944927
H         2.17803901110488   -1.28547043453665    5.24955324559745
C         0.84483707055681   -1.32590088857480    8.17608351402989
H         1.47581012721676   -2.21835362749477    8.19055759910302
H         0.09855828524144   -1.44760975907847    7.39118826697422
H         0.32577575651700   -1.25928498691945    9.13066372974040
C        -0.18687769221001    3.67492571670727    5.52824464496214
H        -0.49516056747232    3.34994938732249    4.51609364171218
O         0.47304125690367    2.62258124209040    6.14143705831460
C        -1.43081863534336    4.04465219617137    6.34608361680311
H        -2.07304755045542    3.16873772947687    6.45092775347811
H        -1.98695223991396    4.83969193265525    5.85582862888851
H        -1.12280337963601    4.37597306316377    7.34112451989929
C         0.77690254729558    4.86341796086847    5.41388629756925
H         1.12757950757631    5.12975546101450    6.41259056675343
H         0.27619085385714    5.71673409199471    4.96532414459246
H         1.63327144563118    4.58869214388711    4.79968929538657

