81
CSD_code = MUCWAK | q = 0 | S = 0 | Stoichiometry = C31H38BIrN6O4 | MND = 7
Ir       24.91003130458712    9.46179701994429   11.62349528288171
O        25.00050127871891    5.80847117856869    9.64680798886526
O        25.18637145348410    7.87291965107637    8.79893557199086
O        22.27376960043071    5.26128612892810   11.01635460173438
O        24.19267229808930    4.52020675899920   11.90055034586228
N        26.86150579802489    9.27038514210812   11.05361095225993
N        27.46004726754632   10.36373718999748   10.53839255064122
N        24.69890561051088   11.12097666564678    9.72550385312566
N        25.72407341085032   11.99311564277681    9.79028284895025
N        25.49289152336577   11.26606585373324   12.68460737568307
N        26.47824594558880   12.00758063500404   12.15631289485614
C        27.69044414711274    8.23090304331719   10.88543322500506
C        28.82576193844280    8.67577264604164   10.20667892458176
H        29.66796495585895    8.08337116681669    9.91197570439534
C        28.64459666923552   10.02846042317199   10.00165079458248
C        27.54489949030231    6.84714608454865   11.41076106134270
H        26.54972134552821    6.44182423752336   11.28420267781526
H        27.77047520344438    6.83279285141375   12.47589067643615
H        28.25634877688966    6.20199132742138   10.89993051326420
C        29.55866354107530   10.97328611918421    9.30828196153157
H        29.03675601984650   11.49453162343957    8.50865910686416
H        30.39204030598452   10.41910718684309    8.88467058217734
H        29.94960321740855   11.71697455651073   10.00030044064831
C        23.87531908429748   11.57076146439456    8.77558988110269
C        24.38100742174930   12.76025595389318    8.23874687277552
H        23.93858087481150   13.35571548494611    7.46546649921633
C        25.55879688790245   12.99889759866930    8.90985915739996
C        22.62038521251286   10.95792869411888    8.24922245674478
H        22.83963315603270   10.04952366882540    7.68844171924923
H        22.16293053533922   11.66681654277653    7.56078468166651
H        21.89483425467996   10.72686506560404    9.02395372237740
C        26.49120390708201   14.14441864630807    8.73973079253642
H        26.59800069175488   14.69712841878441    9.67154580620011
H        26.09763688219449   14.81430935329535    7.97923589825058
H        27.47856192482192   13.80575710617205    8.43091182556768
C        25.24500546459102   11.72885876272379   13.90886540836097
C        26.09406691625322   12.80638786743452   14.16799868116143
H        26.14022886513669   13.39216901280800   15.06349570061777
C        26.86545072550194   12.95386900763807   13.03020670890187
C        24.22340655679923   11.16209801976194   14.82844676048515
H        24.23720992058303   10.07628299523362   14.78472934622914
H        23.22923686637097   11.51744505160998   14.55743446298225
H        24.43301840208952   11.48219258629913   15.84611823817665
C        27.94626294685783   13.94152415699826   12.77454789381710
H        28.09143549527339   14.55469771163164   13.66002317038643
H        27.69186231065387   14.58968476837451   11.93785906730418
H        28.88031343729155   13.43550121498427   12.53796477770959
C        24.78119044262990    6.99562529420151    9.74676020852524
C        24.08196872060555    7.70407092168435   10.83769614278141
C        23.70382445218730    6.85394352418000   12.08592634579174
C        23.30781344435752    5.46575614287123   11.60729723483965
C        22.49222732930293    7.54601983862829   12.77442859459298
H        21.57553739553654    7.18150740412807   12.29756659649167
H        22.46505596610553    7.26334457628551   13.82752836217418
C        22.56379426529644    9.02983533140548   12.60113832337877
H        22.29557049026651    9.65695713930955   13.43847926356397
C        22.66177140824130    9.50581851190643   11.33197235611237
H        22.42229119100700   10.53063919905491   11.08057159362666
C        22.84511178782419    8.43539850306303   10.29197883307895
H        23.07010746356430    8.83161463566850    9.31109085491384
H        21.97951245400668    7.76645000653671   10.22408775805883
C        25.91691854808143    7.32547306253284    7.71928167971273
H        26.84631296471692    6.87761281486409    8.07955465977751
H        26.13145025200769    8.15185069228733    7.04536442122450
H        25.33113304380055    6.55568681919869    7.21029260530035
C        23.98099759440933    3.25345555613742   11.29676214706392
H        22.93967750559298    2.94446797142953   11.41129816959435
H        24.65066772139868    2.55848402084971   11.79733751342722
H        24.22349281605545    3.32290537793984   10.23496184669249
C        25.42401161386431    8.22357592706398   13.13340674628119
C        24.79716900157191    6.97493312786394   13.11812843812124
C        25.06363872158467    6.04373750673937   14.10999463711451
H        24.55020222842704    5.09560926183175   14.11814549124959
C        26.00001966551419    6.32595251803640   15.09006384139077
H        26.21596330699756    5.59353555272193   15.85417427975179
C        26.64919003754164    7.54700471989377   15.09489332969645
H        27.37831058575800    7.77128613003808   15.86067125285015
C        26.36282367613810    8.49043359887815   14.11931078328753
H        26.87842202063274    9.43973046463825   14.14505962046553
B        26.92637178654290   11.79684691655554   10.70654939864748
H        27.77797025551910   12.56554464527347   10.44135720570400

