88
CSD_code = MUCWIS | q = 0 | S = 0 | Stoichiometry = C32H40BIrN6O8 | MND = 6
Ir        4.43989459878526    4.41500803234211    2.63803927468283
O         8.22678723950508    4.60020609873592    3.63962595401360
O         8.02721740016718    3.86344405065681    1.52313460874684
O         8.65810784711894    6.70081724427716    1.67899962883531
O         7.42371496047371    8.58002458176033    1.67160516397300
O         4.77147139786327    8.87592158368594    0.23906344903046
O         4.85835146829721    9.42767910460358    2.41325476036488
O         1.85315232599785    6.00726117045757    1.03651152450526
O         2.37158845301849    8.02672945283632    1.88230067949044
N         4.30130085834868    3.78259276088557    0.57861950316697
N         3.49828985408661    2.72985671698238    0.32743135127346
N         4.84100864107926    2.29818269903121    3.05518457913148
N         4.09928424120375    1.41667017126879    2.35703381466774
N         2.40200178413453    3.82553190666143    2.89249734115532
N         1.97643054975474    2.70773345588462    2.28944957931701
C         4.70737066444707    4.26701862030380   -0.59664247776529
C         4.13327122361445    3.51256063061285   -1.62170590139961
H         4.26077903221322    3.65857454088314   -2.67510869976318
C         3.36923966647100    2.54778198994383   -0.99745797780554
C         5.66371652324886    5.38283413354859   -0.80641638765553
H         5.22759309664818    6.33873668614202   -0.52349389215128
H         5.92919441823497    5.42416117972914   -1.86057906937291
H         6.56528601865579    5.22586172179659   -0.21884858799729
C         2.53989963190910    1.48452889232135   -1.62264263145853
H         2.58634936382663    1.58302672580039   -2.70398623506816
H         1.50225939292268    1.57156925086507   -1.30599680834141
H         2.89865139582732    0.49475247795109   -1.34464826006415
C         5.66466954689631    1.60749407062028    3.84121208368182
C         5.46009029582747    0.24256080042580    3.62447393361919
H         5.97389364685491   -0.56889642129380    4.09854557288819
C         4.45915276994817    0.16090908278197    2.67602921785668
C         6.59224225611590    2.19524909894204    4.84111996180283
H         6.77644003087376    3.24472268027385    4.64575670177296
H         7.53944807984815    1.65961469248148    4.82775633944420
H         6.16534289487385    2.09784672295476    5.83992134950996
C         3.85776797454940   -1.06215136376670    2.08313750360038
H         4.36816205379773   -1.93902402418727    2.47284238855854
H         3.95231324827117   -1.05142070464094    0.99915358510251
H         2.79984820602671   -1.13362261486917    2.33015525359207
C         1.36723118320984    4.37525760877515    3.52364314080701
C         0.24036978213511    3.57660913549246    3.31741046950154
H        -0.74893156184079    3.74828413096033    3.69049737892125
C         0.66570163570058    2.52826643480166    2.52356163028045
C         1.42056500271402    5.62190488616005    4.33387876434951
H         2.37750198720691    6.12142490621078    4.21586649300114
H         1.27035381196315    5.39065758813673    5.38883307385973
H         0.62490920297098    6.29541233304650    4.01974205239971
C        -0.12730089257937    1.38628609724243    1.99865272970824
H        -0.12716231306189    1.38780898572159    0.91033801535393
H        -1.15284642916509    1.46663123206022    2.34910331616865
H         0.28758729051724    0.43792206905297    2.33592135791637
C         6.31664001161735    5.22194359080616    2.38000181277110
C         6.32573836177573    6.55146755463015    2.08097339619887
C         5.01957626571789    7.15925890772262    1.89462625488645
C         3.97245136428873    6.31955605470110    2.06401843089586
C         7.62738531069403    4.56609317822544    2.58618573593767
C         9.30471421152219    3.25769780188608    1.63535359048724
H        10.06686302937933    4.03012885097806    1.75489565297905
H         9.46203379023264    2.70171150535295    0.71445969981905
H         9.33444901218221    2.59071467525252    2.49996448758099
C         7.58850167678365    7.25437536043430    1.79825600273020
C         8.56191760580052    9.35672570546325    1.33195615294633
H         8.62418432161652   10.18679381898995    2.03578614304956
H         8.43691984817546    9.73584624810693    0.31638187699549
H         9.46129787667656    8.74020873346917    1.39095776710812
C         4.87599342092584    8.56139163034582    1.39668420117849
C         4.72496785983426   10.79354583954301    2.05380296020731
H         5.54096422577997   11.09022018914417    1.39157296285390
H         4.75867559087175   11.35986024609741    2.98119503785779
H         3.77584512780078   10.95702918154059    1.53888419106667
C         2.63607425875223    6.72942555937620    1.60977981732870
C         1.15557435886182    8.55316506746854    1.37627485954584
H         1.33252044122174    9.00771517292998    0.39876008212264
H         0.81294707239044    9.30624840893417    2.08406575926343
H         0.41835698122926    7.75389699519393    1.27226441761984
C         4.59328388315453    4.86300941869663    4.52666422422147
C         5.38363297155458    5.96576519972374    5.15469179458219
H         5.09818641002176    6.93491643816568    4.74132189589638
H         6.43816351468979    5.83116553347065    4.89366069424911
C         5.15705729735310    5.86252444716496    6.66765677998589
H         6.09006610434047    5.74942074514526    7.22366183753701
H         4.65232498243730    6.74461694941486    7.06854462739241
C         4.30424152339733    4.65748594411712    6.80329469431761
H         3.98293699123435    4.28423611691281    7.76156815230192
C         4.00506365225126    4.12377054883050    5.60099874905852
H         3.39471864401362    3.24825448440965    5.45874179875122
B         2.93696285513002    1.85846064805480    1.44706954209234
H         2.38150739493317    0.91583994197467    1.01154731889692

