86
CSD_code = MUCXAK | q = 0 | S = 0 | Stoichiometry = C35H32BF15O2Ti | MND = 8
Ti        3.10443886763015    1.33411411710101    3.82976574865915
O         4.68032763873555    0.76855133874065    4.07236857957174
O         2.69920201398981    1.33924110388606    2.20268870010231
B         3.64237054869201    5.37715593231066    3.43986255735745
C         2.46026588177089    0.63798257223063    5.95246881453333
C         2.39091216062356   -0.44160407875123    5.03208236293017
C         1.33072290824061   -0.15905806264521    4.10194251037682
C         0.78644020379722    1.10451741973701    4.43888323708521
C         1.48634024794384    1.59711423249693    5.57537798046963
C         3.32002872043239    0.66923038524042    7.18255700566678
H         2.98406459012985   -0.08905680077702    7.89308758861842
H         3.26296917040104    1.63842853899531    7.67233301119818
H         4.36374542696636    0.46769905964473    6.93919848718213
C         3.07853839301736   -1.76801490214904    5.18371365914357
H         3.97401280117390   -1.66809305253296    5.79422993646130
H         3.35830522645532   -2.19006565199128    4.21725241726908
H         2.40855786582830   -2.47627815309064    5.67819532164123
C         0.74614769187071   -1.18319867915023    3.17316224542442
H         0.04108337256333   -1.80926107367876    3.72654292722493
H         1.52036390503635   -1.83609590109708    2.77092472164125
H         0.20819666785194   -0.72811745048543    2.34458463033631
C        -0.43334006282493    1.74461646061822    3.83600914669338
H        -0.79498066570280    1.16971747301605    2.98646801380380
H        -0.23432674750112    2.76414464939124    3.50124496005563
H        -1.23619849694555    1.78476599285399    4.57499607007252
C         1.05927113117521    2.76791064676310    6.41547767341889
H         0.34577206684957    3.39355245310017    5.88349024610891
H         1.90101043768755    3.38440266253331    6.73119477052811
H         0.56761717796536    2.39923481482962    7.31912110044839
C         5.75246187529526    0.02685361334272    3.60865502101110
H         5.87910617830302   -0.84886473431882    4.27654085585424
C         7.04582390911418    0.85169039186663    3.65245826308467
H         6.94070547329698    1.73484451888419    3.02688168344849
H         7.87834223439559    0.25583939066733    3.28973014076028
H         7.25524067882894    1.16094893135546    4.67316163285788
C         5.46142770371423   -0.46433009927309    2.18730594705963
H         4.49847439532123   -0.98036294471961    2.17999055194661
H         6.24020975068574   -1.14075371499024    1.84498654346499
H         5.41092550097745    0.39342889989191    1.51847723458470
C         2.05227419779027    1.27626820633280    0.97969457483968
H         0.96444609305299    1.21265246277056    1.17833354035138
C         2.30894865443375    2.53930348411765    0.14468473552921
H         2.09914377388185    3.43562349360821    0.72408484804779
H         1.67068989424333    2.53126185075864   -0.73438753383309
H         3.34562008749255    2.56236870750366   -0.18056668047085
C         2.48323997972568    0.03795917167671    0.18237782747774
H         3.52972633545516    0.12668707938183   -0.09978368720569
H         1.88139611798977   -0.04778218640713   -0.71817958089800
H         2.35496528470331   -0.86104552364057    0.78078025428763
C         2.37305446807392    4.33376770579175    3.52152091222901
H         1.63882148514225    4.59448561327706    2.76085690771518
H         2.63192242998973    3.26490106903787    3.37645790273902
H         1.88012067574220    4.44125049779767    4.48629163024453
C         2.98602101296058    6.84123179584134    3.72921939006890
C         2.09843613896465    7.40347341419547    2.81465964735982
C         1.46087979566371    8.62027628728530    3.01205909675302
C         1.68545992150961    9.32823151931432    4.18673202082027
C         2.52924191226914    8.78395016657431    5.14470197137568
C         3.14829320883317    7.56110315944636    4.90590518787022
C         4.88348844568335    5.03693796868249    4.46102474493244
C         4.99338319098706    3.89152453847033    5.22797760572131
C         6.10665929727186    3.55803166117599    5.98825507392623
C         7.20028214628893    4.41067348360200    6.00527629167013
C         7.14418446751945    5.57789782086778    5.24746743254279
C         6.01135964231321    5.86075145564640    4.49387045507530
C         4.41492369465174    5.27148151226340    1.99307347018775
C         4.93492747002147    4.03404254343159    1.63564652720010
C         5.64778747201881    3.79014603368783    0.47150329818717
C         5.88518262674271    4.83443943543288   -0.41233838143138
C         5.42049417278111    6.10116147845046   -0.07966644276122
C         4.71376440827097    6.30315082242125    1.10539656800222
F         1.81768452684661    6.74107854623903    1.67660560848512
F         0.61996463453017    9.10456828903677    2.08946376135252
F         1.07937437883578   10.50063630929050    4.40077280294122
F         2.73276612982430    9.42775031097902    6.30152613243192
F         3.90971644307239    7.06809694733210    5.90345906182003
F         3.95694432067283    2.98357938264406    5.26645556383601
F         6.11394659690030    2.40959941112513    6.67972877264825
F         8.28825591174673    4.11106768334759    6.71961260573188
F         8.19117955453107    6.40633474916465    5.23391634848786
F         6.02667437093332    6.97999242541725    3.76058872051511
F         4.77461503651176    2.96664103219888    2.48343818192351
F         6.09471684255890    2.55057590740410    0.20777270200065
F         6.55735193499234    4.62515946220021   -1.54758895698397
F         5.66197878077802    7.12696989572634   -0.89918535636304
F         4.34901519123368    7.56031261981152    1.36669214417110

