52
CSD_code = MUCXAL | q = 0 | S = 0 | Stoichiometry = C20H24N4O3Ti | MND = 7
Ti        2.53398656459297    2.80276955851362   11.04117638020330
O         4.23331626611684    3.71913237704301   11.29817419388436
O         3.33325011839202    2.31951431531810    9.33022597018882
O         0.66159575354970    3.31021524735691   11.55105601830995
N         1.76384291794662    4.58703531137523   10.12062116090608
N         2.82775473444383    3.90616382693525   12.98431407860857
N         1.28490813561475    1.56553258363177    9.63141619670252
N         2.93931049505639    1.26363667373051   11.92969542443186
C         4.01740660824534    4.24942277368150   12.44509734354365
C         3.19365652886729    5.77616720873805    8.59525248933631
H         3.84675661171160    4.95163586090729    8.88656262617656
H         3.66408448232594    6.72340717542142    8.85665979947663
H         3.04378849318812    5.75904868502074    7.51631547737695
C         4.89879831429875    5.11557649158047   13.12743304349271
H         5.84311132984535    5.37211803523907   12.67418322351790
C         0.62386360005969    4.35949189643890   10.81070207093451
C         0.18362534282254    0.93260624741811    9.22924373212888
C         1.88239333164292    5.63179163961393    9.30599964087807
C         1.13343128778334    3.92477590575989   14.70495762936509
H         0.64976450809191    4.71801799181083   15.27068761110901
H         1.27544037419725    3.06947924618775   15.36575351373639
H         0.50396561925830    3.61805344642280   13.87137890776081
C         0.83568024348747    6.52706713296443    9.13823646824121
H         0.94248242848123    7.37090214358071    8.47492791675650
C         2.34931558905547    1.68547324563585    8.80835830352155
C         3.28173226154847    5.23462287289445   14.89242714754990
H         2.96811771408434    5.60901259402488   15.85428005717300
C         2.45991913176687    4.37807173162369   14.17468295689818
C         4.20518873581264    0.58860044263888   11.81042356732802
H         4.69559426728030    0.49285633539912   12.79507594286839
H         4.85770756489314    1.15698606547905   11.14175016078905
H         4.07294994097918   -0.42926859163187   11.40273781555745
C        -0.34961902863361    6.31654677970538    9.83884323982435
H        -1.17415549062446    7.00545041350869    9.71852063106552
C        -0.47461106266342    5.23608694628735   10.68146216417778
H        -1.37800211807024    5.04239400263101   11.23849991231764
C         2.32177527728040    1.14322521806419    7.50528739989570
H         3.18631023764955    1.25242200550944    6.86997037147821
C         0.09578888674868    0.38054919410852    7.95967925953279
H        -0.80386296573839   -0.12775149766203    7.64995844542736
C         4.51312034680798    5.60157730987851   14.35450884047833
H         5.16311022351397    6.26876752391720   14.90312207849533
C         2.03372103866640    0.56865881721023   12.80621044405731
H         1.82978308970618   -0.45069116357818   12.43534238738545
H         1.09455996870696    1.12226125596244   12.86377640513373
H         2.46000225497337    0.47453324515893   13.81974699106465
C         1.18245607730723    0.49175050927194    7.09539211474000
H         1.12723118761837    0.06635204499865    6.10313405828152
C        -0.94116646517689    0.82960144862238   10.21463498352265
H        -0.83329197362690    1.61508263297962   10.96056966374068
H        -0.90174949221483   -0.13627376629991   10.71827841243691
H        -1.90303928767313    0.91534060896971    9.71435532819651

