47
CSD_code = MUDBOE | q = 0 | S = 0 | Stoichiometry = C16H24N4O2Ti | MND = 6
Ti        5.89159307566009    3.11179796152599    8.65597256369141
O         7.04212955493998    1.73745822815651    7.92822718724989
O         4.30691158528437    3.65911833180755    9.61820653020116
N         4.09226904155414    1.98058667073718    8.17669861212750
N         5.68932253060423    4.18090941050865    7.17624947938743
N         6.18933342131943    1.38566564240734    9.95055659500637
N         7.16773126207486    4.08761369760767    9.54516759212107
C         6.96821174078928    0.94136310303022    8.93709303786272
C         6.00583846524773    0.64675506328111   11.04099963258592
C         3.50835652751269    2.80873911063107    9.07363957308720
C         3.38472515332350    1.03820168098368    7.56058430831593
C         2.02832794721405    0.87701204815188    7.80552286337742
H         1.47140729544478    0.10620193362096    7.29630017014082
C         6.61073358310624   -0.59396848630960   11.18308979125819
H         6.44931448879134   -1.17912249875516   12.07482299567569
C         2.13190722418172    2.69681553517008    9.36221101399990
H         1.68625379940879    3.37174221690917   10.07655154147210
C         1.40357645126179    1.72451079454785    8.71615882884296
H         0.34720080069487    1.61480721231787    8.91777706432239
C         7.61338232502499   -0.31043901936311    9.02447547995175
H         8.23368664742651   -0.64200646951460    8.20611817053408
C         7.14612657489155    4.36825107107655   10.95634656262539
H         7.84952553130840    3.72114393662191   11.51306023240914
H         6.13532253873937    4.21127530789283   11.34190429932000
H         7.43766508536534    5.41440492031900   11.15422403666864
C         7.42550762393431   -1.06701469341555   10.15811972191083
H         7.90572125463296   -2.03089677222627   10.25259816153692
C         8.44065354667563    4.40544050470118    8.95056478035633
H         8.70777410587261    5.46266772300323    9.12405821644492
H         8.39096678495022    4.22035502845653    7.87302178814717
H         9.24950821549151    3.78564752954004    9.37976289786388
C         5.62103339528307    3.70077284628500    5.82160836019662
H         4.58146208776758    3.68804532706501    5.44362033872574
H         6.03011833076352    2.68802421924140    5.77472138613082
H         6.20726155225457    4.34651854026586    5.14482985098593
C         5.11892816134991    1.21936273582974   12.10734616045048
H         5.71076591441968    1.48983457111131   12.98160389887377
H         4.37328344371831    0.48895876682543   12.41697856612640
H         4.62107168255517    2.11119685287040   11.72714262294878
C         4.12148987023056    0.16117070150669    6.59125597205911
H         5.18821851598374    0.37872773308702    6.64167106574070
H         3.76859653877599    0.34261376029150    5.57643691112773
H         3.95337079960768   -0.88916737644001    6.82441628011217
C         5.29345617533608    5.56205973776035    7.28034766624164
H         5.91378721646444    6.20371341130564    6.63013523218913
H         5.40332403153554    5.89120222794079    8.31841927343674
H         4.24014810122683    5.70142922162738    6.97368268615969

