98
CSD_code = MUDRUY | q = 0 | S = 0 | Stoichiometry = C52H40CuIP4 | MND = 4
I         5.85025318169982    5.53945143831972    8.46194645737316
Cu        7.13089600901405    5.30321992926865    6.34166436718537
P         9.44206031806484    6.04534053079782    5.92617665981248
C         9.67873749406314    5.44646421772730    4.26653535605541
C         8.79079136427388    6.06187483799696    3.33751753544440
C         8.76390956170035    5.93218924899229    1.94682462898995
H         9.49741791760817    5.30068152265803    1.45327022454509
C         7.81726010603259    6.61892612632954    1.22656658119071
H         7.78813849446767    6.52647716389272    0.15003125907635
C         6.88447294492909    7.44105289072824    1.87132859642377
H         6.14484476298126    7.96175770796260    1.28012354340085
C         6.90426159395199    7.59816264063343    3.23562558118013
H         6.18961756715656    8.24054550952956    3.73126479428519
C         7.86730710393932    6.92026148905800    3.99364017893409
C         8.08052210987096    6.98271148082894    5.39720457585074
H         7.58635758756080    7.70889959486260    6.02823244157204
P        11.06643614541188    4.51689496467054    3.78780512433273
C        12.04445485109223    4.13523176588518    5.25847387658644
C        12.87036460550135    5.11520095537673    5.79900644384493
H        12.97972384587980    6.06417816934508    5.29257566652735
C        13.54491953114541    4.86924094166443    6.98074801379579
H        14.18307423185644    5.63085843018572    7.40314951504785
C        13.39536832925681    3.65119089755035    7.62537181461327
H        13.91713253331955    3.46462818245705    8.55197384812960
C        12.57436722189286    2.67423705281644    7.08619228698769
H        12.45149502531226    1.72708510222214    7.59050977467874
C        11.89729553227412    2.91157817041336    5.90339363906180
H        11.25596863992144    2.14723756726122    5.48489508882407
C        12.12331055885278    5.46423557412095    2.64459011587159
C        12.16809127911088    6.84292304619348    2.83485622922781
H        11.57837692650701    7.28952241296053    3.62574431827924
C        12.93882768117510    7.63274694485495    2.00326510708178
H        12.97121122762520    8.70135480663027    2.15416932111794
C        13.65782713101416    7.05205785508590    0.97075658181701
H        14.25621915051013    7.66815993708279    0.31661998008513
C        13.59790680013655    5.68306800591152    0.76681835138274
H        14.14693973842012    5.23317622287831   -0.04720451379626
C        12.83163010797592    4.88559289382623    1.59805790786819
H        12.77627038248031    3.82072138168950    1.42382465801680
C        10.74786199870177    2.91754500869931    2.98314034962517
C        11.78443329561471    1.99496827525702    2.83991858383460
H        12.76765113852903    2.22324261721039    3.23198561281729
C        11.54593127394955    0.78894791404094    2.20851338957681
H        12.35002058737180    0.07610635720768    2.09402756362739
C        10.28006193728968    0.49592711267199    1.72155531185373
H        10.09786882172262   -0.44706935472592    1.22776463005778
C         9.24679866530763    1.40569381790486    1.87440199286115
H         8.25720765860079    1.17578274102265    1.50937542058295
C         9.47883473882427    2.61644432232380    2.50602107878523
H         8.67122650981508    3.32423431307802    2.63572223882440
P         6.88751515772909    3.81508610111804    4.63039722600241
C         6.83261806237161    2.06348671703240    4.82976508298864
C         6.23315170536581    1.43969331447480    3.69388227002572
C         5.99473039584286    0.08173127990038    3.47923379115234
H         6.23735154289581   -0.63410587432960    4.25718317605516
C         5.45293103258627   -0.32923403245081    2.28450996126062
H         5.26159623040857   -1.37881632875008    2.11166866639928
C         5.14075469237986    0.59997473990576    1.28449580096646
H         4.71780466773808    0.24930617294092    0.35376339198685
C         5.35894756091106    1.94248782033507    1.47592317724405
H         5.11513042494834    2.66008072397317    0.70504441373977
C         5.90284367032896    2.38950873050424    2.68747152494672
C         6.18962701301356    3.71776375732080    3.07216454432519
H         6.00296270290463    4.57891968416967    2.45071412439854
P         7.02408328280231    1.21575512320551    6.33810171845486
C         5.44135637122377    0.58127099746724    6.94016485557291
C         4.51011935639909    1.55266997710080    7.30464052251911
H         4.79076081187749    2.59825855132904    7.28083345314909
C         3.24425697083887    1.17250114549038    7.70415236504564
H         2.52893360434571    1.92385569309086    8.00076357564546
C         2.90020609119251   -0.17126803437648    7.71989876629111
H         1.90893446390035   -0.46952881107944    8.02681548108926
C         3.82054657474730   -1.13414427985993    7.33850966511973
H         3.54533747694250   -2.17861003676743    7.34498521798960
C         5.09457629954334   -0.76371884456321    6.94450824074468
H         5.81469619518145   -1.51448526248517    6.64773477447082
C         7.73524420156757    2.22120016576686    7.65349992257651
C         7.27810523188729    2.13131829159151    8.96373325809258
H         6.40722699267439    1.53618557401172    9.19821160267668
C         7.92117901139630    2.84230701513841    9.96000616893591
H         7.54617512789942    2.80248899571279   10.97060032796527
C         9.02750359175271    3.61923396698085    9.65862223326968
H         9.51999414060070    4.17911239101301   10.43871611649946
C         9.49221298930181    3.69609213381853    8.35612494524155
H        10.35232086117138    4.30677854918186    8.12085365262562
C         8.84616717373528    3.00108676399808    7.35024461863511
H         9.19449625798754    3.05745105893416    6.32516645002242
C         8.21821710534267   -0.15055735448762    6.23445378500973
C         8.41087275776327   -0.98087309841149    7.33464267872742
H         7.79735614087591   -0.85140008178839    8.21648612249797
C         9.38471353114628   -1.96085269343979    7.28892293061144
H         9.53214814460703   -2.61357531617295    8.13663296431039
C        10.17544767659985   -2.10221139019128    6.15814021255332
H        10.93622001702120   -2.86806581432982    6.12762720175625
C         9.99565710635282   -1.26236888069220    5.07088052069835
H        10.61666086728147   -1.36678451634555    4.19353948945753
C         9.01950394521935   -0.28267235143367    5.10804165491429
H         8.86434854968617    0.37860683089105    4.26645525225469

