113
CSD_code = MUDVUC | q = 0 | S = 0 | Stoichiometry = C46H62N2O2Zr | MND = 6
Zr        6.37356498264863    6.37356498267271    0.00000000000175
O         5.72402980529069    8.15484091265714    0.34096934060281
N         7.81889282742007    6.62301410676368    2.07801160697912
C         5.11238503153520    8.98395759514654   -0.57285012055124
C         3.58619439279909    8.70662280327614   -0.56415007307706
H         3.07808516291254    9.29792208380086   -1.32744917380718
H         3.43988806832466    7.64665015267904   -0.78953853502706
C         2.99947559981587    9.02265652184147    0.81057651932365
H         3.52857519032748    8.40453302013877    1.54525011277935
C         3.24065905331024   10.49502893300417    1.14174046271867
H         2.71617271547736   11.11858635371447    0.41227431946028
H         2.83247589143878   10.72412080895504    2.12903947314775
C         4.73179004950814   10.82194698598795    1.11724121132431
H         5.23559069392630   10.23701203310677    1.88361070295211
H         4.87240102257253   11.88083305610305    1.34178534483092
C         5.33414965577412   10.50150220083773   -0.25029650502450
H         4.76123039774555   11.06465974441963   -0.99600805778742
C         6.80705599538415   10.93349459629006   -0.41613644003567
H         7.13068888411659   10.57392954273218   -1.40134540851156
C         6.93468191591742   12.45869346635402   -0.42573918536068
H         7.95272068121270   12.74456407467605   -0.68140148256596
H         6.70437702779428   12.87747475879578    0.55061723063249
H         6.26288109526422   12.90075595429242   -1.15835007716034
C         7.75449698222332   10.33745815938624    0.62309803452120
H         8.78125741215389   10.59679081832385    0.37064109836561
H         7.65968888965112    9.24962244924514    0.64351400627496
H         7.53821796181008   10.73873897080721    1.61015062716715
C         1.51426285612583    8.67816810286101    0.85019761333403
H         1.36321511323422    7.62976852479987    0.60555343531675
H         0.96467552761529    9.27898406352092    0.12815626405601
H         1.10228783620546    8.86817572221683    1.83903161129544
C         8.72864772211660    5.65003178201043    1.97856350215233
C         9.44156827384775    5.18845010383949    3.08357589334794
H        10.15141877674292    4.38408951017426    2.98314899455934
C         9.23604751703786    5.78142083231204    4.31430003395999
H         9.78371429995259    5.45058412758622    5.18445265888627
C         8.31324225478658    6.80822280598483    4.40711444474876
H         8.12549073375502    7.30368257358185    5.34756221642637
C         7.60813087925127    7.18891933606935    3.27015059472149
C         6.57657493648838    8.26803366589268    3.35451614867388
H         6.08532867758564    8.35953936259240    2.38562159681811
H         7.04948968148666    9.21251890622249    3.62296078660649
H         5.84438639410480    8.03354000454806    4.12690968704980
C         4.99751966908943    5.46985534585442    1.62052149964126
H         4.94919403423962    6.17273569175126    2.46041889955634
H         4.01208932097802    5.40922201865162    1.14247010202528
C         5.47058363937291    4.16730892022305    2.06128814488102
C         6.27673129442181    4.02484180077427    3.20729254035507
H         6.48025297606457    4.89644943782443    3.81594338435920
C         6.78607777433951    2.80323305436232    3.59435208565988
H         7.40822455444347    2.74144575241610    4.47766853345405
C         6.49134765310958    1.65479285987117    2.87637151795597
H         6.88956230199524    0.69799193838857    3.17915609800583
C         5.64332761673874    1.75199365933595    1.78322487040252
H         5.36493845619298    0.85866518799827    1.24000401314305
C         5.13845139291959    2.97368752562352    1.38908539550643
H         4.44944679286510    3.00908093596842    0.55467573347851
C         5.65003178195098    8.72864772211624   -1.97856350216304
N         6.62301410671073    7.81889282742662   -2.07801160698991
O         8.15484091263601    5.72402980532841   -0.34096934060910
C         8.98395759513594    5.11238503158346    0.57285012054273
C         8.70662280327639    3.58619439284496    0.56415007308547
H         9.29792208380999    3.07808516296729    1.32744917381501
H         7.64665015268190    3.43988806836730    0.78953853504515
C         9.02265652183315    2.99947559985148   -0.81057651931281
H         8.40453302012160    3.52857519035343   -1.54525011276791
C        10.49502893299122    3.24065905335217   -1.14174046272271
H        11.11858635371011    2.71617271552925   -0.41227431946467
H        10.72412080893665    2.83247589147337   -2.12903947315001
C        10.82194698596678    4.73179004955206   -1.11724121134364
H        10.23701203307652    5.23559069396010   -1.88361070297105
H        11.88083305607930    4.87240102262095   -1.34178534485994
C        10.50150220082351    5.33414965582760    0.25029650500253
C         5.46985534582693    4.99751966909219   -1.62052149961658
H         6.17273569171700    4.94919403423960   -2.46041889953716
H         5.40922201863478    4.01208932098459   -1.14247010199147
C         4.16730892018862    5.47058363936289   -2.06128814484959
C         4.02484180072477    6.27673129440051   -3.20729254032968
H         4.89644943776825    6.48025297604295   -3.81594338434340
C         2.80323305430627    6.78607777430698   -3.59435208562854
H         2.74144575234835    7.40822455440173   -4.47766853342836
C         1.65479285982311    6.49134765307575   -2.87637151791232
H         0.69799193833529    6.88956230195231   -3.17915609795768
C         1.75199365930270    5.64332761671508   -1.78322487035232
H         0.85866518797157    5.36493845616907   -1.24000401308222
C         2.97368752559700    5.13845139290773   -1.38908539546187
H         3.00908093595358    4.44944679286155   -0.55467573342759
H        11.06465974441533    4.76123039780897    0.99600805776554
C        10.93349459626864    6.80705599544157    0.41613643999708
H        10.57392954271641    7.13068888418068    1.40134540847287
C        12.45869346633214    6.93468191598404    0.42573918530827
H        12.74456407465067    7.95272068128319    0.68140148250208
H        12.87747475876746    6.70437702785468   -0.55061723068618
H        12.90075595428064    6.26288109533981    1.15835007711008
C        10.33745815935065    7.75449698226790   -0.62309803456341
H        10.59679081828505    8.78125741220223   -0.37064109841959
H         9.24962244920981    7.65968888968940   -0.64351400630711
H        10.73873897076459    7.53821796184784   -1.61015062721067
C         8.67816810285895    1.51426285615971   -0.85019761330893
H         7.62976852480060    1.36321511326431   -0.60555343528181
H         9.27898406352799    0.96467552765915   -0.12815626403103
H         8.86817572220971    1.10228783623206   -1.83903161126836
C         7.18891933600828    7.60813087925199   -3.27015059473504
C         6.80822280590871    8.31324225477436   -4.40711444476533
C         5.78142083223047    9.23604751701945   -4.31430003397576
C         5.18845010376613    9.44156827383502   -3.08357589336071
H         4.38408951009709   10.15141877672556   -2.98314899457122
H         5.45058412749158    9.78371429992256   -5.18445265890434
H         7.30368257349799    8.12549073373706   -5.34756221644582
C         8.26803366583864    6.57657493649641   -3.35451614868743
H         8.35953936255029    6.08532867760292   -2.38562159682812
H         9.21251890616249    7.04948968149953   -3.62296078663220
H         8.03354000449293    5.84438639410428   -4.12690968705494

