43
CSD_code = MUDVAI | q = 0 | S = 0 | Stoichiometry = C14H24Cl2FeN2 | MND = 4
Fe        7.77035295482603    0.97090622723914    9.83307682195789
Cl        9.01203076066495    1.71372565919970   11.27946987818608
C         7.26774592387133   -1.62079779276582   10.31197683658716
H         6.82119900812881   -2.50789395006965   10.73983401415377
N         6.89310467015272   -0.40076046421329   10.66434474229342
C         5.90579786500822   -0.22928190454951   11.70675576608967
H         5.15264130367842   -1.02698396572083   11.62793170461002
C         6.58653993098081   -0.31604735683715   13.08134147986523
H         7.37576852921144    0.43663337589691   13.12180745872556
H         7.05391629322806   -1.29703874559036   13.18967754961057
C         5.57957123948584   -0.07907781159975   14.20106690363948
H         4.81922101776688   -0.86403639197773   14.18257716499794
H         6.09007961625066   -0.13002383399246   15.16428940336707
C         4.90887433456137    1.28061139810348   14.03628206280380
H         5.66380553963257    2.06599550425787   14.10756812758897
H         4.18199568278600    1.43768743732840   14.83538281044247
C         4.21685549145355    1.36412538520102   12.67972895783520
H         3.75048836626696    2.34290762362963   12.55615427971930
H         3.42876358424316    0.60896416230274   12.62629802870700
C         5.21605539714605    1.12975234939434   11.55165331611937
H         4.71125341392256    1.17121761069511   10.58476618570102
H         5.98083816337070    1.91740255069163   11.57349072160364
Cl        6.52867972213359    1.71383554529902    8.38671462589712
C         8.27278536810122   -1.62080511985365    9.35404614094593
H         8.71926493772306   -2.50790574612139    8.92613025783404
N         8.64749950400731   -0.40077129560045    9.00174060412006
C         9.63478306735465   -0.22930005253658    7.95930534185845
H        10.38793285315123   -1.02701080231980    8.03810846311872
C         8.95399448235539   -0.31605371907660    6.58474091045373
H         8.16476179248355    0.43662531232900    6.54431579873647
H         8.48661847438028   -1.29704643914493    6.47641019810866
C         9.96092308148611   -0.07905998620455    5.46498418974307
H        10.72127823624419   -0.86401471525538    5.48342778677608
H         9.45037683174472   -0.12999226906737    4.50178225067461
C        10.63161702935947    1.28063137438152    5.62976101799485
H         9.87667495921695    2.06601004077780    5.55852905256488
H        11.35845912802140    1.43773136829331    4.83063116866596
C        11.32369338446515    1.36411503423692    6.98628563681218
H        11.79006559261917    2.34289434958256    7.10985811953049
H        12.11178777195595    0.60895303939617    7.03966810762554
C        10.32454420868963    1.12972531888952    8.11440310259992
H        10.82939260851098    1.17116861300984    9.08126817905444
H         9.55976787935819    1.91738308236169    8.09261483228019

