65
CSD_code = MUDZEQ | q = 1 | S = 0 | Stoichiometry = C26H28CdN7O3(1+) | MND = 7
Cd        3.45656331339798    2.98071241791703    4.49586189459312
N         1.23926460264127    2.43222536931260    4.70135818456151
O         1.64804837528132    3.15519952793051    5.62793175306175
O         0.36804623808920    2.82677814819320    3.96877483361469
O         1.74103456335923    1.32218283167003    4.56105251634410
C         5.98655183817295    2.02345189507725    2.60181030487298
H         5.42435253040575    2.08196258527036    1.66843634748739
H         6.87673957731489    1.40298328169575    2.41602100070417
C         6.44235972422479    3.42328057777039    3.01136119049145
H         7.06180568653614    3.35233601472265    3.90821555078051
H         7.06686827372119    3.84062887819277    2.20545442805173
N         5.12587469875100    1.41326553174277    3.61197145045154
C         5.91388131015827    0.87921160564491    4.72024254683530
H         6.59115553327243    1.66065705606193    5.07810570037940
H         6.52228256380981    0.02003844731853    4.39608037743058
C         5.02658132521832    0.47251034213115    5.86732922545285
C         5.24695501371237   -0.70807013837005    6.56611804757960
H         6.06178656963450   -1.35984672297893    6.29064225849481
C         4.40110107845173   -1.03509755419991    7.61309544043066
H         4.54593933388043   -1.94750524585290    8.17073940081393
C         3.36039732812471   -0.17220754190703    7.91553630159775
H         2.66867871311628   -0.39207553575327    8.71228996263388
C         3.21778923055153    0.98345188842080    7.16509807202437
H         2.40548909677516    1.67087053137607    7.35867448307608
N         4.03596080772008    1.30713252833065    6.17055142646637
C         4.32409793315484    0.34776343469438    3.01650906646493
H         3.83514281234944   -0.20740923094494    3.82384052662644
H         4.95456067756959   -0.35516137214977    2.44893445015171
C         3.21946162151853    0.86910532019635    2.13687351336209
C         2.60694773571572    0.01868309438697    1.22448042128146
H         2.95791258567237   -0.99560121101488    1.11414715921172
C         1.53193353926671    0.48246397886656    0.48712585176405
H         1.02532468613136   -0.16430936295748   -0.21232570929414
C         1.12194017148609    1.79292095104857    0.67161078109855
H         0.28589504036518    2.20039489713287    0.12796294808702
C         1.80237868786559    2.57603044511328    1.58719557437349
H         1.50923497904211    3.60483892049123    1.74088764499659
N         2.82816609045748    2.13135062708081    2.31075622487449
N         5.32020953802174    4.30118216518445    3.31892144490660
C         5.75233102818739    5.41138134763766    4.16300644862702
H         5.10942964583330    6.27537160985422    3.96271401837980
H         6.78402893482124    5.71424553805751    3.93440609271188
C         5.61143893772180    5.12718617642540    5.63669053845999
C         6.47389739354545    5.72453220638670    6.55028981669366
H         7.30634648847385    6.31733542896082    6.20342450800580
C         6.23976586627764    5.55943737240112    7.90467597643765
H         6.89505779046416    6.01089881294487    8.63357675286096
C         5.13548620736120    4.81963673543741    8.29911410523285
H         4.89618804531383    4.69160585242960    9.34219041322806
C         4.34041023545972    4.24520896698943    7.32142589885991
H         3.45998738918726    3.67565672317457    7.57980744089362
N         4.58281526808296    4.37689120459723    6.02185468236716
C         4.65623119510852    4.79973066608861    2.12135861636379
H         4.43969208570601    3.95645913975268    1.46071326452026
H         5.29547793481184    5.50780149260875    1.56931606402412
C         3.34869657606559    5.46408478426376    2.47295657492307
C         2.84778299119412    6.49996787578382    1.69413614424426
H         3.39284269770772    6.83852169904495    0.82628048049861
C         1.64105598682439    7.08346282947866    2.04610275484255
H         1.22480841989561    7.88131609580086    1.45049412931004
C         0.99350915881673    6.62979740226130    3.18367703500996
H         0.06153940890278    7.06424638931069    3.50556246638497
C         1.56520340896374    5.59397604185368    3.90620450098497
H         1.09441975434972    5.21488531510933    4.80267274252389
N         2.70554372599873    5.01043291647458    3.54977593748262

