49
CSD_code = MUFBIZ | q = 0 | S = 0 | Stoichiometry = C17H28ClN2Rh | MND = 6
Rh       -6.89397006128685    2.26527306580032   10.46709333012296
Cl       -5.66604105676032    4.09676999548965    9.83196379636755
C        -6.88212866856182    3.26335147510620   12.20193677064302
C        -9.21228381067082    0.47802467554053    9.56572384838513
H       -10.29125455048518    0.58981377218094    9.69482841891804
H        -9.01676718458342   -0.58538671649223    9.41785607593745
C        -7.32330365306955    0.36854770651852   11.29438909405852
H        -7.17946821386159    0.34808981489912   12.37561708998333
C        -8.51268028788434    0.93727282952081   10.82894928739064
H        -9.18227308763147    1.34540163850192   11.58438163711926
C        -7.36039216280312    1.79703631786628    8.41333286141758
H        -7.18242805233916    2.70569560602142    7.83746511787930
C        -6.56871353611523   -0.72935350330986   10.57655465010445
H        -7.10951606224408   -1.67583996355726   10.69574228014474
H        -5.59835088571901   -0.85462923634100   11.06534237315231
C        -8.77817880899899    1.28067405368931    8.32400888968254
H        -8.88322715340596    0.66479321801471    7.42365011233173
H        -9.44484449822999    2.13911719633737    8.20632235636013
C        -6.34073236340376   -0.44013855901942    9.07995440275487
H        -5.40658440433276   -0.91281562427022    8.76882969417985
H        -7.13939428415853   -0.88330897727395    8.48296454440841
C        -4.68782614994593    2.32693510309459   12.65657491915285
H        -4.05661594693797    2.91596351174938   11.98317596601731
H        -5.01267018117416    1.43136045638296   12.11259652330651
C        -8.95693664303518    4.32958433031259   11.56165874309701
H        -9.73181118805582    3.60955851898253   11.83933895033530
H        -8.63175682304516    4.12166293024773   10.52922763851077
N        -5.85170042024282    3.12029075145062   13.03562782787095
C        -4.99879573164277    2.31776758682930   15.04307273323714
H        -5.68998841849321    1.48398663720157   15.17396033029256
H        -4.54933010353809    2.55545470431752   16.00498667789924
C        -7.58423765004343    5.46109232209808   13.14992123615748
H        -6.52211854550516    5.63709963144508   13.30124716652631
H        -8.10466245681935    5.47268355804554   14.11616443288646
N        -7.80532301872324    4.19736823423303   12.45681536550678
C        -6.26795618572567    1.04073487072305    8.78007214695014
H        -5.27982015329839    1.40921532253490    8.50368074960574
C        -3.96597995120256    1.99006247821968   13.96640015508923
H        -3.08636188949453    2.62219785598460   14.09013367834376
H        -3.64636834448702    0.95074335502898   14.00111761246015
C        -5.73438970618090    3.50827206030100   14.43010056525939
H        -6.71750921739923    3.66746689068511   14.87093010338877
H        -5.12673441711153    4.41346405670898   14.54958962780791
C        -9.44341836677953    5.77034027990321   11.71438034103443
H       -10.23321976505681    5.83160988348779   12.46560851865344
H        -9.82259592558661    6.17317278525142   10.77832512572640
C        -8.19521815930528    6.49297562285451   12.20599746284356
H        -8.40922317008707    7.43854655488657   12.69990894478397
H        -7.51319868456024    6.66550092181488   11.37317982589889

