56
CSD_code = MUFDEX | q = 0 | S = 0 | Stoichiometry = C27H22Cl2N3PPd | MND = 4
Pd        4.71582258691760    2.32047912710612    4.98886147231760
Cl        3.35406299573924    1.67606978404589    3.36630065715936
Cl        3.18227619529557    3.78252321492159    5.72378203807440
P         6.57571366944790    1.22948650681904    4.18139738696903
N         5.94238213352207    2.81394063576346    6.51260474211257
N         5.71818713596476    3.62976339216506    7.47123554507136
N         6.72407103999586    3.55386703146848    8.32903210333861
C         7.41491115134176   -0.28172110704912    3.60234655759155
C         8.25335764078173   -0.72190080151754    4.57897152097757
C         9.12859448976342   -1.92178372316050    4.76348660902157
H        10.09231022118571   -1.75878600343223    4.27140191166904
H         8.68700676154370   -2.83112831416615    4.35692580471226
C         9.31231928620318   -1.99619024465696    6.29040128782815
H         8.51044845220402   -2.59944967274568    6.71794112673258
H        10.26323612539866   -2.44719334815746    6.56981143253490
C         9.18076407683981   -0.54954128738348    6.79728416985717
H         8.76625364688443   -0.49343164857080    7.80413825586248
H        10.15377597387059   -0.04920166219538    6.80452210978047
C         8.30123945194333    0.08703499639109    5.77367358321936
C         7.53169716557033    1.20070236759100    5.72839122753850
C         7.12823799594222    2.15812098908300    6.71160912755360
C         7.63549226183671    2.64091918750136    7.89963294662116
H         8.53836439594762    2.40440028570579    8.41786420919570
C         7.12022427761885   -0.80076447027483    2.28586174153974
C         5.96912639707209   -0.34587452609352    1.63576954683653
H         5.30815554485134    0.35121120269677    2.14481051702461
C         5.65045585143868   -0.79833022086538    0.37220446257359
H         4.75335316806285   -0.44344557015906   -0.11136587801483
C         6.47923531509896   -1.70613958833241   -0.26989397254448
H         6.23145940170394   -2.06175430161503   -1.25889960451631
C         7.62984855956086   -2.15379900808167    0.35944252557264
H         8.28132644493064   -2.85457201916145   -0.14249083022808
C         7.95355660814057   -1.70716913573780    1.62620021360826
H         8.86200162627777   -2.04644024205005    2.09862192848360
C         6.73053180453887    4.34873753263536    9.48465316112573
C         7.74921593733473    4.25044243473174   10.42542412428253
H         8.56415052721377    3.55648247211445   10.29244836317297
C         7.71296653369806    5.05372875891382   11.55108752040505
H         8.50302601787619    4.97722205185950   12.28254698918756
C         6.67285169132207    5.94779339383089   11.74169572963119
H         6.65286320970717    6.57036607863983   12.62287098814902
C         5.65877329698182    6.03973982142844   10.80104245603764
H         4.84596433398933    6.73397379803043   10.94680108044043
C         5.68094874741422    5.24444897201315    9.67194383868707
H         4.90138769734324    5.29720995042883    8.92890308073300
C         7.37897253001843    2.54438127222275    3.19703861973163
C         8.69671466915279    2.42971894108781    2.76452971122441
H         9.25965418193002    1.53490296294119    2.98836630140448
C         9.27786680402071    3.45987996198131    2.04861956483747
H        10.30037903630686    3.36924698793269    1.71242917932941
C         8.55187728618873    4.60486607165304    1.76048207520293
H         9.00972447317076    5.40551565854205    1.19894209101335
C         7.23920752200435    4.72127091743925    2.18780706283104
H         6.67166410639631    5.61070199887162    1.95938453956025
C         6.64875371115297    3.69490610961661    2.90478492997697
H         5.60193783346654    3.78186202737911    3.22862211682293

