43
CSD_code = MUFHIG | q = 0 | S = 0 | Stoichiometry = C19H17N2O4V | MND = 6
V         8.53573496854356    1.27892739701486   15.56652958542879
N         9.03598045221054   -0.32611790782477   14.39331330788167
N         6.29814451808599    0.08137136007701   15.92929283264854
O         7.58131506202145    1.73746696621255   14.17226341823470
O         8.96669741538301    0.12100726044332   16.75464715699772
O         7.68195722431921    2.27449598706795   16.68425223892671
O         9.82995276647669    2.06307029850849   15.29629263626880
C         7.52974110033761    0.00527596873466   12.57343784319804
C         7.08705707087796    1.25518133570449   13.09026914804217
C         6.09241955877370    1.97562375854727   12.37197281994788
C         5.58407811431635    1.44960230453155   11.20729742364647
H         4.82755749455671    2.00094633069965   10.66692479958889
C         6.02328824215849    0.22216887011473   10.70344715080177
H         5.60490588841886   -0.15914343471397    9.78488161398701
C         6.98535000491082   -0.48706139619073   11.37659014861658
H         7.33572273895477   -1.43591015975151   10.99510211474783
C         5.63850387995015    3.28182052475125   12.94569548289721
H         5.03577166384471    3.83716212750099   12.23184374395670
H         6.50611606485236    3.87542256215268   13.23556880956633
H         5.04911222944768    3.10879881042421   13.84832044334638
C         8.53796497037711   -0.71574247160168   13.28318557307876
H         8.89656442601426   -1.64585845422411   12.82089842049201
C        10.03350774401692   -1.09609812982847   15.07521650213970
H        10.98026740321799   -0.54550193729330   15.00999555230595
H        10.14659857437197   -2.11196431303806   14.66937144995064
C         9.56529731531512   -1.08829821162750   16.54885237687024
H         8.84035882579918   -1.90900346986424   16.71144618599984
H        10.41764316215538   -1.22977317982734   17.23458534220167
C         6.54268996296874    2.04415547117852   17.24970790509258
C         6.00854422904016    2.88860320634952   18.22084877662119
H         6.57693481565562    3.76178970530510   18.50675757413093
C         4.77805746235436    2.61650363377183   18.81966027429019
H         4.40327067166028    3.29645833715136   19.57090944496743
C         4.04302238892966    1.51027432986894   18.47572488258318
H         3.09242476377472    1.30521195660934   18.94514398151724
C         4.52767577796955    0.62192073729678   17.49688850333474
C         3.83921626969918   -0.53714123374623   17.08183045008255
H         2.88527291071992   -0.77524039935001   17.53167203446546
C         4.38922437748089   -1.33929980575319   16.11818157055344
H         3.88863886913709   -2.23297825639920   15.77811114354165
C         5.63063774090468   -0.98322721734496   15.56632208674600
H         6.08306825302709   -1.59829160296586   14.79622450784823
C         5.77931262696916    0.88389234132789   16.87552274245609

