49
CSD_code = MUFHEC | q = 0 | S = 0 | Stoichiometry = C19H22N3O4V | MND = 6
V         5.36567392088531    5.46219884330788    7.33811073642289
N         6.69114433365081    5.50552772819120    5.88312198133652
N         6.34057138399195    4.85530252480053    4.75508030742120
N         6.26021471213164    3.10915573275187    7.64440427859238
O         6.72604015181479    5.78376748445648    8.38901176341840
O         4.56926353552701    4.40566326577565    6.03368833053314
O         4.28873305935853    4.70754430689508    8.45531216508999
O         4.85744214842361    6.86453783197765    7.01150647323436
C         8.18118158431838    7.29488292273529    9.51697498934084
H         7.39241044374466    7.92064014194382    9.93499552061117
H         9.05758792739804    7.90355642923896    9.31991557639311
H         8.42053297867239    6.52648836460083   10.25108923776245
C         7.66384454848074    6.65121351875572    8.25753215970799
C         8.20043130383881    6.92963119039944    7.02370253070090
H         9.03378240284916    7.60920360125545    6.94247877194594
C         7.74919772974610    6.27225353780454    5.85440865480176
C         8.49369583315069    6.43295178094606    4.56209725474631
H         8.73036908567035    5.45260331578385    4.15266209901628
H         9.40200134889050    7.01123014488244    4.69851665214038
H         7.84670205809200    6.93184617492938    3.84195234232979
C         5.17320352789724    4.30883537757885    4.91111982052845
C         4.50325299732355    3.55422950322562    3.77943830437611
C         3.22419358259652    4.31987209996046    3.42065041442467
H         2.60690592039921    4.44810631817332    4.30763261758327
H         2.65809428152321    3.77530840846644    2.66779773405431
H         3.47349800212216    5.30441699884565    3.03137788115425
C         5.42658746063756    3.45383653573238    2.56841913657337
H         5.70257685241754    4.44563356678916    2.22395213415941
H         4.92334022438060    2.92367306696755    1.76283673422558
H         6.33647190043044    2.92048620415938    2.82872507129120
C         4.14734802285142    2.15705670395475    4.30313478487021
H         5.05052511789640    1.60799972734178    4.56539456456309
H         3.60722693984974    1.59757002256387    3.54247356066449
H         3.52356191914682    2.23834930434574    5.19151225964780
C         4.13048583947761    3.43638293695250    8.63115748910484
C         2.99597220685238    2.87956866087655    9.21331018951554
H         2.21290845052135    3.54102648807927    9.55491589309728
C         2.85905901775649    1.49534506381631    9.33749615162212
H         1.96048459797377    1.10144879560208    9.78991487358545
C         3.82701891328241    0.63356005169131    8.88729479963205
H         3.70219152868142   -0.43569798851758    8.97234189423749
C         5.00027806385870    1.14008152040872    8.29456158260945
C         6.03809562283699    0.33588091874675    7.77877309360144
H         5.95292988789854   -0.74041174556304    7.83658975106930
C         7.13190791573714    0.93202882058319    7.20968693809668
H         7.93923724415166    0.34552626887700    6.79829428678571
C         7.20306981313705    2.33500979644684    7.17397811239162
H         8.06681051375712    2.83224715278587    6.74721548724385
C         5.16404314396838    2.54503057967460    8.18114261374517

