71
CSD_code = MUFJUT | q = 0 | S = 0 | Stoichiometry = C29H36ClN3OPd | MND = 4
Pd        0.01402771627808   10.58503055565677    4.08058170378169
Cl       -1.17758069895303    8.92358963407101    5.31147929236872
O         2.61301036499880   10.34699347504400    7.71254974742236
N         1.08957754559473    8.17219434868985    2.76160676364599
N         2.37802899247153    8.90735986419942    4.35538865520359
N        -1.21495932942888   12.16881678743155    4.73843260157235
C         1.26067118244173    9.17287000351172    3.64301251191417
C         2.08449851092262    7.23382181277059    2.91534374628674
C         2.35441466133318    6.03541352820031    2.27298116854879
H         1.72047406681377    5.65894320482629    1.48564600450506
C         3.46804246615227    5.32839937857780    2.68730352764672
H         3.70527336504887    4.39008839469347    2.20990529293082
C         4.28845444223645    5.79508216306425    3.71110999290991
H         5.14487462377348    5.20904999024780    4.00722653668827
C         4.02799144584100    6.98819841806327    4.35985222781735
H         4.66407908864060    7.33844944043469    5.15736014181808
C         2.91617926059151    7.70628402899154    3.94931782958557
C         2.86602428871584    9.74814683261978    5.41881034988858
H         2.76098145266896   10.80107262205094    5.11958260053467
H         3.92016302394117    9.52953537918584    5.60073512791551
C         2.06274751420165    9.52923122266160    6.70568202758331
H         1.00511816583039    9.79645080134352    6.51953345247744
H         2.10430851456411    8.46877218137783    7.00330402533903
C         1.90145448977668   10.26762672603290    8.92060029955564
H         2.38938720132414   10.94794057352614    9.61546022442042
H         1.92136541277208    9.24940447324352    9.32835284933659
H         0.85508181061963   10.56783168594606    8.78570582189223
C        -0.00756550180129    8.11640286189309    1.81431434655040
H        -0.89613032980466    7.75707406728979    2.34080349106316
H         0.25675987451190    7.39503814460418    1.03594805690390
C        -0.25396066122722    9.48304513262103    1.21147282174173
C        -1.46359212982926   10.16231228025745    1.42906854025303
C        -1.62664864430404   11.43295810934526    0.88646469436007
H        -2.56782897269169   11.94824469784042    1.03086395329185
C        -0.62787791440409   12.04848117863321    0.14859511858446
C         0.53980510213771   11.34268917166489   -0.09438451536104
H         1.31543914149042   11.79985422606572   -0.69175281006479
C         0.73829640899087   10.06915090135630    0.41606189090245
C        -2.61716642123655    9.52088879962299    2.15070012849078
H        -2.88699421745352    8.57408715308091    1.68368762706085
H        -3.49081226392811   10.16845181264090    2.11781496681631
H        -2.36470884289184    9.32753386968588    3.19819470158906
C        -0.79571354369423   13.43961422390559   -0.38016269701752
H        -1.83432073612661   13.75783184805126   -0.32900057815895
H        -0.45818088023593   13.50369024087297   -1.41267914627252
H        -0.19274546043356   14.12767395891662    0.21270743250759
C         2.00758008278739    9.33969934137302    0.08298026244497
H         1.79458197462055    8.36290648153007   -0.35101669667479
H         2.62121717154544    9.18414697515617    0.96841400092885
H         2.59069025849003    9.91212174788338   -0.63377804771694
C         1.04453846150588   12.05501731089549    3.20028076047011
C         2.31113702256616   12.04811681326622    2.62249637391490
H         2.87608847197216   11.12570385130579    2.55261445108333
C         2.88218581756369   13.20203055720553    2.10758598404174
H         3.86468454594997   13.16030276004902    1.65753785045551
C         2.20314941069637   14.40466168535363    2.17092009571108
H         2.64705012868407   15.30674523088076    1.77425792137759
C         0.94709074862002   14.44314144991237    2.74924534035556
H         0.40423661022117   15.37843171632029    2.80661156883630
C         0.37619168457524   13.28413767511666    3.25418874584307
C        -1.01635663478392   13.30411038437333    3.82869547769763
H        -1.22939778496596   14.25551454224190    4.34481192235160
H        -1.72713136612830   13.20822776504858    2.99941466175693
C        -0.60435036729574   12.46118532624412    6.03866006383054
H        -0.73700422086024   11.60077813760932    6.70126570578798
H        -1.08361400624719   13.33557301352235    6.50690969143427
H         0.46501178537386   12.67031344378795    5.91916151080738
C        -2.63914654868612   11.91678650824132    4.93389453160800
H        -2.77058577637102   11.03117882023155    5.55747598559719
H        -3.11745867736027   11.73496956618377    3.97175235372098
H        -3.12913237864838   12.77357869150226    5.41903693746285

