51
CSD_code = MUFQOV | q = 0 | S = 0 | Stoichiometry = C19H21N4O6V | MND = 6
V         2.62488637546737    9.89524778320911    7.90525337791107
N         2.27542152488774    7.93211785513001    7.81148576646790
N         2.07084115205754    7.33387750352227    8.97415865313465
N         1.36297229128443    6.50380818585517   15.28746488584627
N         4.55369555805639   11.36496404190311    9.08002900014894
O         1.79626342747660    6.78922099601978    1.95411253856993
O         3.25820929511271    9.72709444742270    6.33981987662757
O         2.62982327167201    9.37379646026932    9.72574934597333
O         4.94523523003697    9.25900209146566    8.45316123223487
O         3.37461557361600   11.37144846760807    8.43717010405190
O         1.14426933282672   10.19649709484478    7.71552017723642
C         2.28000013110255    7.80366064009796    5.41176129630338
C         2.90624444919203    9.07299171764389    5.27206073672989
C         3.15520261621996    9.55501127649110    3.98292273663965
H         3.63037829418407   10.51967928820328    3.87827504045860
C         2.79401689823056    8.83075341166563    2.86429802003776
H         2.99663969314934    9.24756819136163    1.89046116256037
C         2.18175101648315    7.58227634188198    2.99705657410873
C         1.93944166436872    7.07964192787098    4.26706121358152
H         1.46763121206250    6.11372183418662    4.35810559789019
C         2.00267185128020    7.25722566123342    0.64377228318003
H         1.45910677384681    8.18914879474554    0.45771198255612
H         1.61324493518465    6.47841184582946   -0.01018136422126
H         3.06641103366798    7.40707243416679    0.43114628125125
C         2.06273074801533    7.27211025966631    6.72001130257656
H         1.70395546836981    6.24650358912151    6.81242326108794
C         2.25039952092493    8.17883177094035    9.96936075152429
C         2.02021528625296    7.73383767088840   11.33831076858271
C         2.16747216278226    8.62710871099552   12.40110762735218
H         2.44603782446211    9.64866775103932   12.18416333845897
C         1.94922466037369    8.23021601074328   13.69883411313104
H         2.06384577059980    8.95732039858072   14.48569973037105
C         1.57036583751907    6.90951374116353   13.99963158726048
C         1.42442072560052    6.01713997934842   12.92069763000494
H         1.13744210184217    4.99420432954405   13.09873801322430
C         1.64250096546922    6.42068421370030   11.62565106469398
H         1.52510410367902    5.72850307864913   10.80756548808964
C         6.59346243470294   10.33156086095090    9.85639274042149
H         6.38030048939145   10.18972748841386   10.91472697075280
H         7.07939946098061   11.29409440631337    9.71981911966845
H         7.25614847747055    9.53539681113600    9.52876835781239
C         5.30420366004754   10.25178034397366    9.07220958985846
C         0.82758278347775    5.19228881954073   15.56078561279258
H        -0.12134187637390    5.03248138938785   15.03965969001651
H         0.64984502972835    5.08715085287656   16.62815727064819
H         1.52982312249053    4.41120056702069   15.25536102061729
C         1.49581956537507    7.43625166185755   16.37930478550983
H         2.49117472126185    7.88691054899460   16.38144784186501
H         1.36505253648408    6.91158334974115   17.32266206257469
H         0.74922107853613    8.23612102421990   16.32420910578492
H         4.75801973906664   12.19567207856481    9.62902463604021

