54
CSD_code = MUFRIO | q = 0 | S = 0 | Stoichiometry = C14H30B9Ir | MND = 9
Ir        4.68533846750457    3.17320238620833    1.12801143966496
C         4.61646999977775    1.51411476190162    2.66519507826059
C         4.84976630720323    2.97989014893246    3.28739826166147
B         3.30184391461677    1.53198756202928    1.67281632686228
B         3.14623853541842    0.81111918232602    3.27961041736050
B         4.19527076517447    1.71344637421950    4.31899664229528
B         3.70217697302813    4.14132245338364    2.89822460282031
B         2.59234151755986    3.31693489064006    1.80760380661082
B         1.90938205497466    1.92715309690746    2.64629956398441
B         2.44958462071091    1.99755300200674    4.36887295757173
B         3.60568305244829    3.34770985943925    4.47217981315337
B         2.16058610349595    3.51548322539032    3.50676265280536
C         5.78703331289127    0.57113321107554    2.42082283326147
C         6.25438793342981    3.39825082780307    3.71805080306521
C         5.16425695634451    2.58340977752644   -0.96538767319428
C         4.07916870123893    3.47552285976326   -0.84622590370856
C         4.64253642504178    4.69903537124254   -0.37497923138751
C         6.03726853962948    4.83182603216321   -0.97436341400755
C         7.17640333227616    5.25967614414265   -0.02687995035577
C         7.70096499563682    3.92261143981582    0.49598329189371
C         7.73474545865579    3.05500319500674   -0.75915711202760
C         6.38179251225858    3.37918923962195   -1.41245713604361
C         6.75430040428429    6.24712125613553    1.04998261049660
C         7.97161407929988    1.57213780452260   -0.51965668793052
H         3.27063723825907    0.83867336237129    0.72114647687565
H         3.09854448077255   -0.36257786398603    3.34132885953096
H         4.94093777072635    1.23279393961774    5.09381444027943
H         4.01094533274747    5.28066874371773    2.91864103935847
H         1.96569765170789    3.82948960909586    0.95434649072895
H         0.83259009814553    1.54692360461058    2.35428075764504
H         1.78775000189799    1.66492550602558    5.28330768892521
H         3.92043903971881    3.96005407516750    5.42783063048424
H         1.26731883167623    4.23233306625527    3.77893233126737
H         5.56464655472838   -0.07368196857309    1.57168740692647
H         6.71977707608404    1.09081948149034    2.20255026283202
H         5.97261369879536   -0.07483083595119    3.28002303379077
H         7.03489313901220    2.71826820631328    3.37715479498610
H         6.49689359255026    4.39886908457652    3.36262957684974
H         6.31883749568926    3.42767641726599    4.80592878588948
H         5.04261002748006    1.57690859712409   -1.34436945550613
H         3.04149825174392    3.26665022358695   -1.05148798867872
H         4.04619116968727    5.59696846759824   -0.28033567938410
H         5.98713307329579    5.51987138312192   -1.82475468218751
H         7.96916349057062    5.72156943243760   -0.62716253733616
H         8.66427664650420    4.00285100826743    0.99819808789046
H         6.96280787692174    3.50151829928216    1.18785151380803
H         8.53217843361745    3.43000357813997   -1.41173914255401
H         6.46415761114547    3.28273740672633   -2.50113952618229
H         5.92014957921838    5.85570525679986    1.62477707403898
H         7.58573927835908    6.45309547993203    1.72134308579270
H         6.44163594021568    7.18480338960522    0.59696718541573
H         7.15553315383575    1.13929823479581    0.04872092088748
H         8.03975809592603    1.04475454731810   -1.46856684224178
H         8.90229040606352    1.41782616505971    0.02319141675189

