73
CSD_code = MUFVIS | q = -1 | S = 0 | Stoichiometry = C28H40CuO4(1-) | MND = 4
Cu        6.28362814203098   15.03798482729483    4.27070497157238
O         7.26303115603016   16.42501075067710    4.68205632634461
O         4.86890579465011   15.79816139002417    4.95753206636621
O         5.29477870118028   13.67039272172023    3.81959491745257
O         7.70578255185030   14.26007684606453    3.61951534019021
C         6.51725624788168   17.36607733793874    5.29009982364683
C         7.01494093338736   18.59389673617763    5.73364371843945
C         8.48057461955152   18.94409581194684    5.53893795219365
C         8.84033579535946   20.32773110745756    6.08871730452121
H         8.64992189723066   20.38426022120764    7.15850365429704
H         8.27129913643310   21.10742080924846    5.58652220402779
H         9.89985509758264   20.51970382373909    5.92171142755205
C         9.33747886016953   17.89265020427046    6.25463158140300
H         9.12296276853335   17.89288478616473    7.32235274784933
H        10.39763369042626   18.09882496360964    6.10916363373676
H         9.11082164653893   16.90981105382148    5.85267263961658
C         8.79468610134892   18.91484644053325    4.03788527806563
H         8.57167639469705   17.92825645913770    3.64306921613479
H         9.84690496640927   19.13710397889293    3.86180503052453
H         8.18759113141753   19.64904430017863    3.51013403184489
C         6.08947612971146   19.43687850134688    6.33810909194259
H         6.40125417428796   20.40274749506672    6.70553396925995
C         4.75883609082093   19.08719278976594    6.49339566628059
H         4.10524987771518   19.79861145004206    6.97488207144017
C         4.25321903579810   17.86943771589392    6.05313305340480
C         2.80124274182058   17.44865603186936    6.20585241413028
C         2.22051160208210   17.17137044190892    4.81371725574003
H         2.25689210910033   18.07200391895736    4.20253677248119
H         1.18523333127557   16.83966826449688    4.88948115813878
H         2.80482649076587   16.39563017133049    4.32822681688490
C         1.94166209515791   18.51406817196987    6.89292316762811
H         1.93521869809819   19.43916997259104    6.32017702570989
H         2.30614689658099   18.72215225145299    7.89679091930328
H         0.91547093231891   18.15622311350936    6.97173300024516
C         2.74961624140254   16.16242541253677    7.03977735796515
H         3.16669911350024   16.33706480195652    8.03055360358358
H         3.33233832347983   15.39048514673895    6.54632926734952
H         1.72198860031510   15.81599503027975    7.14718741775593
C         5.17544219942003   17.01513014762599    5.44359228828414
C         6.04081313632585   12.72660576981917    3.21626542213017
C         5.53310862988678   11.51798653975586    2.73319067784103
C         4.05382093752383   11.19812436542463    2.86750268062131
C         3.24968795224589   12.28303793705808    2.14026513482042
H         3.48156798528464   13.25226998300831    2.57123687108238
H         2.18021732214026   12.09845913727027    2.23893427775934
H         3.50709321782978   12.29929754207036    1.08217472617416
C         3.68275295869070   11.20681656959839    4.35557554114560
H         3.91486600738368   12.17967442869448    4.77821187081043
H         4.25028596680637   10.44724842821321    4.89131574184878
H         2.61924068576905   11.00845504775594    4.48662254976361
C         3.68343898652716    9.83442596342411    2.27654809223806
H         3.91025484175103    9.79548395096937    1.21308271769792
H         2.61469103274246    9.66324536057861    2.40227985152711
H         4.21709576587165    9.03193464993985    2.78160352717854
C         6.45998629068636   10.66888428296713    2.13960028015776
H         6.14079610202541    9.71721215634102    1.74266688252262
C         7.80136299780006   10.99474847354055    2.03230388056331
H         8.45599061309849   10.27881808361672    1.55898923623658
C         8.31589946934024   12.19555728786796    2.50747018588796
C         9.78064556842142   12.58781074709801    2.41124412649557
C         9.88906117686881   13.89375454901016    1.61446955918077
H         9.50227366410872   13.75466245790030    0.60598051743925
H        10.92726949193757   14.21879673002561    1.55093923337429
H         9.30725584171191   14.66591601275617    2.10861028798499
C        10.63889264724847   11.52109643328222    1.72450376450267
H        10.30059997148705   11.34464528883297    0.70552373366399
H        10.60948517232515   10.58267337831541    2.27441448132609
H        11.67404024906118   11.85909881071089    1.68500009975375
C        10.32013436654309   12.81502251957967    3.82893476218684
H         9.73729638480665   13.59142460487822    4.31520464530089
H        11.36466040245719   13.12407078809660    3.79686626509783
H        10.24251203095126   11.89989183598941    4.41427610468284
C         7.39191181598421   13.05700448612597    3.10420608758622

