69
CSD_code = MUFXIU | q = 0 | S = 0 | Stoichiometry = C22H32F6N4NiO4 | MND = 4
Ni        0.00074724904230   -0.00042371650115    1.40715965052489
O         1.41844513543051   -1.13589917399458    1.14671987196822
C         2.63856918153517   -0.85972076017982    0.92636426044856
C         3.48553169206171   -2.07762470304215    0.53512374408934
F         3.49081743609456   -3.00459344816536    1.50806202216481
F         4.76826317244223   -1.77949594684387    0.28967968225093
F         3.01563196117224   -2.68123728530870   -0.56486158207022
C         3.25346290561483    0.35789707617876    1.03509515797809
H         4.30586493035981    0.45852524345067    0.84299195809408
C         2.51303293578577    1.48551179182759    1.44056373380093
C         3.18862745078089    2.81453583179307    1.69366160420962
C         3.56140804894710    3.46119176003412    0.35118578088126
H         3.92848781254011    4.46923325304067    0.52594577146401
H         2.69370846462790    3.51789236534453   -0.30039232618851
H         4.33480166939864    2.87763185500742   -0.14020165702206
C         4.41982113271671    2.70293974902747    2.59584218545755
H         4.15266931843793    2.22287582574816    3.53375294756311
H         4.80128028008827    3.69895871053008    2.80624965407715
H         5.20560715382647    2.12931019114073    2.11396754109016
N         2.12522651492885    3.50454466847406    2.41820571219785
O         2.16001732837268    4.91037642033057    2.28295183975573
C         2.26171560881619    5.54643250358688    3.54068775620521
H         3.14050087896553    5.20254716352911    4.09208619134319
H         1.36930531556518    5.37884623771267    4.14900076878501
H         2.35833691786269    6.60687382373308    3.31519341185816
C         0.83249816987758    2.87485592060814    2.07397276354185
C         0.00151419355626    2.78225523951561    3.35758308143359
H         0.63057228336346    2.43568488656316    4.17451449479259
H        -0.81767645419092    2.08164459541526    3.21508823501903
H        -0.40725298092190    3.75766473253169    3.60487345123097
C         0.07673036077487    3.61424072395193    0.95838765935485
H         0.39511720564157    4.65410077953636    0.94188730428368
H        -0.99104623576806    3.57789667824469    1.13458533956238
H         0.28385424704223    3.16169249605391   -0.00865298771302
N         1.22667722963054    1.53021119921878    1.63571582837505
O        -1.41634969644451    1.13536138342047    1.14536840793880
C        -2.63652613223135    0.85972714045865    0.92477736080589
C        -3.48268813275064    2.07783088976935    0.53248171464863
F        -3.49017364462446    3.00414986213370    1.50608353017844
F        -4.76487543908755    1.77980530274270    0.28408234426331
F        -3.01043658998867    2.68223363639103   -0.56602586343219
C        -3.25206241306792   -0.35749140501634    1.03421530765805
H        -4.30449313793299   -0.45768644755820    0.84202859702905
C        -2.51225782322385   -1.48531966630793    1.44025235864879
C        -3.18902800110807   -2.81356743339421    1.69437889222155
C        -3.56470225134734   -3.46022417406985    0.35273992513469
H        -3.93375201445795   -4.46736989242955    0.52849953079444
H        -2.69785454885028   -3.51925377646811   -0.29975357899774
H        -4.33737651324070   -2.87531257814233   -0.13818150451699
C        -4.41886550736849   -2.69989509817374    2.59821833268853
H        -4.14957288379094   -2.22031819494086    3.53576208107385
H        -4.80181527591163   -3.69522867607165    2.80914700517384
H        -5.20427228831012   -2.12482852461702    2.11743564433083
N        -2.12562232266268   -3.50476347801962    2.41777189810704
O        -2.16151456774692   -4.91051256294306    2.28197175628869
C        -2.26316462041108   -5.54697597890393    3.53950362964674
H        -3.14177610673200   -5.20307788470671    4.09117760587864
H        -1.37061223051277   -5.37979135484066    4.14772220086084
H        -2.36007896305552   -6.60731990451279    3.31367026654878
C        -0.83261458822475   -2.87587864726335    2.07314902196795
C        -0.00085970202421   -2.78459832093718    3.35634745157746
H        -0.62938187206348   -2.43880949156409    4.17401626612186
H         0.81829414459766   -2.08392807098330    3.21407516547066
H         0.40802385192376   -3.76028406588236    3.60237099421786
C        -0.07797258680830   -3.61552033908128    0.95706873949071
H        -0.39114275802620   -4.65698551674168    0.94590449665930
H         0.99027465383362   -3.57287572883520    1.12845111233455
H        -0.29172797695435   -3.16779070003887   -0.01070899826425
N        -1.22589057578764   -1.53087699059737    1.63520745663577

