41
CSD_code = MUGHOL | q = 0 | S = 0 | Stoichiometry = C20H12N2NiO6 | MND = 6
Ni        1.28944328179390    3.01171472112279    3.88128496951266
O         4.41655379161362    2.45463503423283    1.45275910165074
O         3.04978789880664    3.44305616161983    2.91153335825900
O         0.16209259738274    1.65650944721909    5.48082331176375
O        -2.16172193875376    4.39583512723702    2.41075813554195
O        -0.61503735898969    2.94926104246819    3.10966489491164
O         2.69852107477619    3.64369845696624    5.69300071135413
N         1.72269841511167    1.32896345627459    3.37918269928070
N         0.83901830836790    4.73820954684857    4.17526999417626
C         2.64011418279781    1.18769061796232    2.44226391398756
C         2.85678515043549   -0.03947945857296    1.79535674823669
C         2.07463498930759   -1.11566205443069    2.11811630869769
C         1.11140400315183   -0.99631962638847    3.14556578313146
C         0.25955742245326   -2.03566072869203    3.57088874247369
C        -0.64969930642535   -1.81873157944860    4.57076537591487
C        -0.73612484298285   -0.58178852551334    5.22806823081203
C         0.09263587644652    0.44613067914786    4.85678348064764
C         0.99537112574208    0.26479121476162    3.77935443641708
C         3.46282437956739    2.46835831219975    2.20305955890615
C        -0.20939487254013    5.21454823350889    3.53229962611818
C        -0.48443854524227    6.59033165560342    3.47831441447772
C         0.37420473429917    7.47058444764487    4.07994434149037
C         1.48273975680693    6.97940011001871    4.80630126000923
C         2.42494319821848    7.78693787256286    5.47481840310200
C         3.47240950416713    7.21587941095041    6.14582382270644
C         3.61989747607556    5.82256569708390    6.22622858511215
C         2.70940510385392    5.00447522049871    5.60731551204822
C         1.65512360533434    5.57446697409868    4.85081872544505
C        -1.10211299507676    4.11242100597166    2.93005046416866
H         3.62647439196759   -0.07922701540473    1.04028926305820
H         2.18384010081170   -2.06050313049286    1.60600511976496
H        -0.66386515244856    1.85312344949818    5.93931139876217
H         0.33104849537990   -2.99859158717165    3.08927193783540
H        -1.31161030128309   -2.61371608446318    4.87835577950627
H         3.57885205035941    3.30655838645170    5.89897181755661
H        -1.45293913176417   -0.44689279950711    6.02499588483193
H        -1.36190857631630    6.90522983332437    2.93516562206659
H         0.21717964777447    8.53746674704381    4.01656784491416
H         2.31063797240204    8.85933579378058    5.44005379499404
H         4.20055338327708    7.84107429648343    6.63948624875814
H         4.44810110333701    5.40191963750556    6.77781037759963

