49
CSD_code = MUGHOM | q = 0 | S = 0 | Stoichiometry = C18H20N6NiS4 | MND = 4
Ni       -0.61931717581799    7.56609406924869    3.74455510559704
S        -2.35014556026449    7.00150617061125    2.47733596974886
S        -3.42210647916182    4.34850316830529    1.97662662516007
N        -1.24262534330592    4.78638455687766    3.43166108093529
N        -0.34501121763885    5.66394854669838    3.98011107948699
N         0.12021699437231    2.71206284104681    4.33911702701195
H        -0.71745889980657    2.91385130737037    3.80874862621669
C        -2.19235318420571    5.31936653635182    2.73523902079834
C        -2.93568931992380    2.63841465164845    2.47308106451180
H        -1.94986225387476    2.46468067121271    2.03898021003121
H        -2.90095855176990    2.61795524482051    3.56187842971079
C        -3.93427821220006    1.67349524831549    1.94141040542785
H        -3.98932563727904    1.61177798436146    0.86356138125368
C        -4.72747106127982    0.94514282780297    2.70514911609708
H        -4.68946968188595    1.00236178671246    3.78122814107182
H        -5.44013941622918    0.25599366030167    2.28741729227993
C         0.65248321369350    5.11035893474362    4.62320686394551
H         1.38529033262382    5.76501629580787    5.07465136805032
C         0.90244436784307    3.73025082420261    4.81014102311830
C         1.96963762364279    3.14448149307175    5.49632521112978
H         2.76308619435831    3.67310084649505    5.98541139333605
C         1.80192575351420    1.76400137191797    5.42141922379185
H         2.44397570686105    1.01653690479928    5.84288499304180
C         0.64727576482753    1.53037843988834    4.69814876270887
H         0.18530745699309    0.60063725474189    4.42761424075180
S         1.11075789731369    8.13071871888294    5.01274957174471
S         2.18278292626107   10.78380995104261    5.51329542604921
N         0.00287680394841   10.34591525912713    4.05891054666793
N        -0.89436097514420    9.46826386341904    3.51001125168579
N        -1.35979491107727   12.42009401511501    3.15098047487001
H        -0.52210410333621   12.21834932917560    3.68133017672153
C         0.95219010307249    9.81302814884601    4.75585868607797
C         1.69603864364529   12.49389088039543    5.01698776369932
H         0.71022487639212   12.66735158399883    5.45127890319570
H         1.66109524080169   12.51446589202488    3.92817910278820
C         2.69413469290792   13.45938096144847    5.54853418726241
H         2.74995584788498   13.52026371168092    6.62658481316902
C         3.48688439156270   14.18826638798590    4.78466070181168
H         3.45064450028391   14.12904962761004    3.70907059753347
H         4.20105159069800   14.87574955365076    5.20267366022547
C        -1.89188847303817   10.02176440244503    2.86688759422073
H        -2.62468160330126    9.36703845406458    2.41551662110692
C        -2.14196698703382   11.40185891995636    2.67996169041540
C        -3.20922185101838   11.98757438509700    1.99383212003287
H        -4.00265942576562   11.45892487112978    1.50476241126492
C        -3.04150871362507   13.36806411967458    2.06860372524237
H        -3.68355967823400   14.11549818642067    1.64707367533433
C        -1.88692535157600   13.60175388562029    2.79196973449418
H        -1.42499685570776   14.53152325383279    3.06248290917006

