66
CSD_code = MUGTEP | q = 0 | S = 0 | Stoichiometry = C25H37BrP2Pd | MND = 4
Pd       -0.83542834536391    9.21731208936007    3.09795862849095
P        -2.67216669164251    7.97254478605021    2.67285000332417
Br       -0.28715014250393    8.31232682752743    5.28823543882749
C        -1.04083652630678    9.79848156827516    1.15763888288013
H        -0.77321766716358    8.86977632503759    0.61403282626793
P         0.74697896150432   10.76999810305640    3.20918505045436
C        -2.49030420626958   10.03284216526015    0.93056960546484
C        -3.39006554576479    9.04620831818253    1.38664324444203
C        -4.73183453136959    9.10097088078937    1.04740009407731
H        -5.41155343542850    8.32736179688471    1.37495685224090
C        -5.22131963298641   10.16939263437982    0.31282787441316
H        -6.26914379374405   10.21415315053295    0.05564973138720
C        -4.36840458866270   11.20060992375230   -0.03945011162292
H        -4.75462642308588   12.06491661773552   -0.56040191417461
C        -3.01737340597931   11.13070414127272    0.25434404865888
H        -2.37027750606025   11.94393327619197   -0.04145048583256
C        -0.11545704640480   10.87249475346306    0.66411324849237
C         0.76390732228059   11.50079786235802    1.54876445756069
C         1.58403424298347   12.54007485069140    1.12325985573117
H         2.22910850665669   13.04852527071251    1.82519756628424
C         1.56654325450896   12.92662214624273   -0.20332283465621
H         2.19973587238689   13.73437308395093   -0.54016540492407
C        -0.08496253154850   11.24556593381483   -0.67800703595359
H        -0.71866292369189   10.73363387413724   -1.38934909370693
C        -3.98868761136010    8.06639285720290    3.98161827214665
H        -4.96919102188243    7.93612689488699    3.50717629036780
C        -2.62850600443042    6.20993061249601    2.08325326136180
H        -2.46280579596842    5.60786320034739    2.98639259853166
C        -3.88569349731325    9.48219173667921    4.55250596735677
H        -4.01080255490404   10.22854431705250    3.76285208865699
H        -2.90537150950815    9.61975531146587    5.02426438298282
H        -4.64850247985457    9.65151912956373    5.31062310366869
C        -3.80185520832264    7.01591366285992    5.07121472608981
H        -3.99381241112171    6.01360603857793    4.69316432884206
H        -4.49567425123309    7.20719046663316    5.88829249764831
H        -2.79091882733833    7.05261171946566    5.47370405647756
C        -1.40402766401806    6.06454903927964    1.18046012620512
H        -1.21270039466758    5.01752904853689    0.95153910657600
H        -0.51766541204321    6.47355564651550    1.68101681300859
H        -1.55609727008789    6.59731715862219    0.24103111860221
C        -3.90742138043292    5.76266360278844    1.38958759038721
H        -4.08829981926018    6.36133806881701    0.49808582170938
H        -4.76547229974198    5.85321068643625    2.05286748990799
H        -3.82132048910489    4.71954628156343    1.08779682850766
C         2.41821781899417   10.01305151143137    3.46986794459848
H         2.41310582438064    9.67636845507855    4.51629321189776
C         0.51051353612114   12.21411704860638    4.34177320210254
H         1.11232219969884   13.05760751924903    3.97989553801812
C         2.44876582191793    8.78141172965632    2.56084218178525
H         2.44818957519729    9.08169412705999    1.51101353169432
H         1.56440161532289    8.14818527553772    2.74625809170294
H         3.33718458402570    8.18190021317188    2.75049302433636
C         3.60899900462688   10.93068245286235    3.23116540520207
H         3.68644054258660   11.19540158959780    2.17828456763167
H         4.52738351741816   10.42177135474551    3.52042765672973
H         3.52801800932264   11.84292156962981    3.81981585160910
C         0.87858365326038   11.88093901134021    5.78252537246126
H         0.35169697259438   10.98777699637737    6.11571922697689
H         0.60113512855047   12.70532610613052    6.43771659312514
H         1.94770931139854   11.70732236932069    5.88691900031088
C        -0.97858605733865   12.53923442037494    4.20245958584671
H        -1.21561735047350   12.82741214220995    3.17621175835506
H        -1.27087047924762   13.34941325790752    4.86794582252146
H        -1.57273254810818   11.64972882874346    4.45667622395544
C         0.74941328299299   12.26155259830548   -1.10562524020061
H         0.76012872303905   12.54320556325345   -2.14870554782044

