63
CSD_code = MUGZOE | q = 0 | S = 0 | Stoichiometry = C23H33ClN3O2Rh | MND = 6
C        12.00571440032723    2.96992228191065    0.09588547172151
H        11.00354291176614    2.83905362122011    0.48209472695682
C        12.46321548903198    2.17347087679457   -0.93477584975578
H        11.80022606219713    1.42861599240825   -1.33988166999713
C        13.75917548742511    2.33757516661423   -1.42048143528869
C        14.51823310791675    3.33255274664047   -0.81648483172300
H        15.53255156147278    3.50387182463320   -1.13610333221757
C        13.99916652826517    4.10452206579695    0.21547835827964
C        14.74912864562077    5.14545895875347    0.91676400840679
C        16.02534574061554    5.57320618335075    0.56033281772461
H        16.50118831059672    5.12600132989839   -0.29448469264113
C        16.67280043288185    6.55972587711603    1.29017415681008
C        15.97718712249607    7.08202183061240    2.38293408270713
H        16.41054608425049    7.84829196764029    3.00459753584395
C        14.71296249515349    6.62334819580500    2.68608600044242
H        14.15076058688101    7.01704192373822    3.52576205789423
C        14.35170638937365    1.49674394660409   -2.53453762506319
C        13.36031695799988    0.46116916899674   -3.07005095403845
H        13.05906195765960   -0.23186585625710   -2.28825506169732
H        13.83210007296305   -0.11389533705363   -3.86361789203211
H        12.47673112886367    0.94130016009982   -3.48429232745573
C        15.58145836198521    0.75630688451236   -1.98986125543042
H        15.30237343145320    0.13628471381319   -1.14096837033387
H        16.35303990045860    1.44887168993627   -1.66540065541612
H        16.00168832827220    0.11669489778978   -2.76250840735835
C        14.76354259872616    2.41894992621894   -3.69106688965172
H        15.17226040849768    1.82854573803816   -4.50766851266885
H        15.51851224214690    3.13611433531303   -3.38084976989323
H        13.90110983831238    2.96902618269815   -4.06184415032842
C        18.06035594389276    7.07036499830794    0.95325900648933
C        18.66036371985617    6.37751796316214   -0.27287772717601
H        18.05208664334880    6.54924454657588   -1.15838279262359
H        18.76314611038165    5.30737502326098   -0.10717611538632
H        19.65155358360983    6.78165108058456   -0.46592556556996
C        18.98233700988157    6.81649516942241    2.15423400248528
H        19.99077811935127    7.15347950066764    1.92557930703751
H        19.01741432677455    5.75407136751139    2.38579407318149
H        18.63909452022957    7.34668617535161    3.03786969785414
C        17.97534437622333    8.57642844524677    0.66751279897090
H        17.30529238877560    8.76594854645997   -0.16856099282808
H        18.96020771213539    8.96185725667366    0.41406469738287
H        17.60764873352826    9.12449973049508    1.53016421551218
C        10.73984975643840    4.06562447128664    2.95447695924632
C         8.95829877450269    2.88374620505634    4.36813639557671
C         9.17668731035788    1.37916409846147    4.18542046879801
H        10.21270757393825    1.12498112119953    4.39789130611855
H         8.95045469956974    1.08038270188706    3.16396433699402
H         8.53044404924766    0.82781784028129    4.86328945184538
C         7.54298010846621    3.29615605835392    3.95760811915084
H         7.42162113404999    4.37237686903453    4.05460092327402
H         6.81605333529454    2.80139589077449    4.59627090006620
H         7.34790308140586    3.01762390987277    2.92414796514429
C         9.26443487171141    3.31176333242123    5.80592700787754
H        10.28516846537411    3.04114882272839    6.06500955979555
H         8.57956190085632    2.82175456047481    6.49314775717585
H         9.16200668051444    4.38944336353397    5.90740461950167
Cl       13.45830322953113    2.99610647911430    3.33828520541642
N        12.74139155854768    3.91628454271868    0.67279718554822
N        14.10377287718693    5.68056078093660    1.97168469705217
N         9.87386392733245    3.55351170851677    3.53373672085765
O        11.98181890711076    6.27358982697873    3.72353847063187
O        11.59318501610009    6.67434976892548    2.48270422516383
Rh       12.36042297135644    4.89747054994127    2.41312758468838

