49
CSD_code = MUHFOL | q = 0 | S = 0 | Stoichiometry = C25H19BrN2PtS | MND = 4
Pt        2.37182696227380    2.34010108415878    1.72479418005803
Br        3.63393239725781    0.45116849985623    0.74628044121991
S         5.23504879277545    3.75031169805341    2.43352504097194
N         4.11646306352846    2.19499912894207    4.08705939823797
N         0.70363643993894    2.10068761959564    0.56873166809415
C         3.91960164711675    2.70950044846603    2.87032516991945
C         5.27391540375469    2.57867956963758    4.73500469974498
C         5.71246448029737    2.21168495156083    6.00235186581649
H         5.13648934633670    1.53602557783241    6.61264754266888
C         6.91188878384749    2.72532542891006    6.45509001834143
H         7.26676425895944    2.44724738600088    7.43539555615547
C         7.67062727736941    3.59106054325549    5.67302756738780
H         8.60467692699783    3.97388005010887    6.05356243355991
C         7.24172744056161    3.96700204897191    4.41460515863525
H         7.81833910004877    4.63807062847077    3.79886827247907
C         6.03944627176748    3.45535645226108    3.95726464045033
C         3.15712340516433    1.28905855779526    4.69215291243758
H         2.35836426526551    1.12953980179945    3.94185141009269
H         2.71336242370373    1.77546745509755    5.56778183194257
C         3.77089076811698   -0.03169697014203    5.07845250892283
C         3.45610553095959   -0.61457061881894    6.29957741362244
H         2.77188561333303   -0.11533012486952    6.97229504009888
C         4.00939066183556   -1.83126983238743    6.65641719948290
H         3.75721870116803   -2.27653822439841    7.60759593059321
C         4.88513325078927   -2.47311153944402    5.79730865850684
H         5.31879894604410   -3.42140008521186    6.07758641129147
C         5.19753028215661   -1.89857365559231    4.57712725097842
H         5.87034429803107   -2.39819356360726    3.89727581961785
C         4.64271873528552   -0.68409405390555    4.21653211445620
H         4.87754243524252   -0.25581037500337    3.25472980110735
C         0.53397029579024    1.18607208300761   -0.38227926541107
H         1.33027988973333    0.46734594915828   -0.52375786623530
C        -0.59616359880166    1.12265392666311   -1.17624043217418
H        -0.67872663230985    0.35965644047648   -1.93295258207196
C        -1.60061648743046    2.05680445622233   -0.97562498134115
H        -2.49647419297366    2.04506781741776   -1.57817739878603
C        -1.43240431157879    3.00646166470618    0.01280972334285
H        -2.19742025940374    3.74502996804031    0.18754641900918
C        -0.26976187349370    3.01609449592453    0.78273404609537
C         0.00679357751331    3.97213828349921    1.84925239153680
C        -0.89206386241975    4.95989323620531    2.25050374146701
H        -1.85551944905087    5.05555831432900    1.77193871245990
C        -0.55836673099754    5.82751054111198    3.27039462305069
H        -1.25560501785868    6.59237827414466    3.57968532400461
C         0.67370886131256    5.71380037626507    3.89403343790035
H         0.93842436390921    6.39389133026197    4.69151156441234
C         1.56862488734658    4.73277712573267    3.49973225920572
H         2.52338236774358    4.67838353339263    4.00839222478072
C         1.26398026305248    3.84090429604157    2.47498010185608

