45
CSD_code = MUHFIF | q = 0 | S = 0 | Stoichiometry = C21H19BrN2PtS | MND = 4
Pt        4.52342098352787    5.23352292042564   13.06587012382396
Br        3.99661429636267    7.53914589780669   12.32958213973732
S         5.54387094641959    4.54718785422329   10.04414056980942
N         3.09841302607250    4.31504321164871   10.65843096653028
N         4.87865670635798    5.70115065745365   15.02326105623645
C         4.26482976977851    4.66017640368748   11.20985380503200
C         3.13714342538934    3.94409043092741    9.32904958792277
C         2.08871558502220    3.51214644711877    8.52367797334417
H         1.08574234893493    3.43414003911270    8.91080835574226
C         2.36054699389015    3.17827551659195    7.21129934141829
H         1.55604258683088    2.84255276878584    6.57523578700351
C         3.64939864338336    3.26722706172526    6.69431062590381
H         3.83013982252036    3.00386478877104    5.66392435970416
C         4.70123146724346    3.68478642900452    7.48691465199409
H         5.70556560493744    3.75277126358556    7.10153747979405
C         4.43306857350846    4.01664272643075    8.80387598844337
C         1.86073445437957    4.38067259637588   11.41010322644489
H         2.13177480951394    4.44946682155842   12.47713288295854
H         1.30268499241883    3.45330292820177   11.24904808593214
C         1.01765025919839    5.59634745092817   11.02011898140938
H         1.59383762837137    6.50260406703340   11.21052682244807
H         0.78757549149336    5.56344918761700    9.95348286883655
C        -0.27126462804640    5.63485655001421   11.82884865836594
H        -0.86701563325478    4.74037064062477   11.65557191874847
H        -0.86207579202598    6.50224532471497   11.54890909886307
H        -0.04947224431790    5.70096706840457   12.89104071514910
C         4.86223797885442    6.92203115234536   15.55161127041039
H         4.57322749893407    7.73715207453486   14.90148696045282
C         5.19204838463179    7.17903127279402   16.86951108940238
H         5.16275692012712    8.18948157864929   17.24324511963125
C         5.55997551460223    6.11655219971655   17.68036756954001
H         5.82971550407754    6.27577580735989   18.71358579058723
C         5.57629022554272    4.84631858588856   17.13879854590683
H         5.86192994190948    4.00371172472709   17.74668262134766
C         5.23073149339655    4.65192831254041   15.80191210406820
C         5.21917379551643    3.35653972678342   15.13159849574844
C         5.49237527887183    2.15174875722460   15.77843190514001
H         5.72629209434317    2.13292574647241   16.83272725035173
C         5.46095326293946    0.96518887031417   15.07459832043300
H         5.67191645352095    0.03254895207772   15.57719110968553
C         5.15806099314323    0.97579366197307   13.72245829761438
H         5.13492172526669    0.04776060043650   13.16858213234984
C         4.88365567444219    2.17025205562767   13.07684414011593
H         4.65348373504616    2.13860311635350   12.01900675794994
C         4.90552340690041    3.38484875140490   13.75680444768170

