26
CSD_code = MUHHAA | q = 0 | S = 0 | Stoichiometry = C10H14CuN | MND = 6
Cu        1.86566573935307    5.04026829564236    2.43538249345752
C         3.59685173443238    6.06259189391307    1.63108387054727
H         4.35235960581155    5.65667575170369    0.97855822855828
C         3.65015242638452    6.09299538472465    3.04041565749054
H         4.45547368823676    5.71852668686500    3.65081151064007
C         2.51743410173817    6.79526042238130    3.50423975626117
H         2.30862763916251    7.05125968348526    4.53001491348788
C         1.76483481813102    7.19835846236903    2.38087465875000
H         0.87974464396482    7.81285004621406    2.40037341137611
C         2.43218030857101    6.74547832806151    1.22384772680160
H         2.14285080320007    6.95064102659649    0.20622973339780
C         0.94069979353952    3.51982838715315    2.46848603794704
N         0.32873278027486    2.52992615273576    2.46413723061685
C        -0.41219556652794    1.33318944807624    2.44050002591107
C        -1.26613811331372    1.33359825395911    1.16902241151440
H        -1.94260479905365    2.18484430062704    1.16752867065159
H        -1.85149954216024    0.41961539819101    1.11887941095348
H        -0.63271389578488    1.39423031847674    0.28734478841366
C        -1.29491979989607    1.29582971421439    3.69132963934880
H        -0.68206303541202    1.32441436192877    4.58898546966550
H        -1.88434390542062    0.38303782413677    3.69758157217747
H        -1.96866646883837    2.14911593551880    3.70537707766691
C         0.57683402114209    0.16390788383794    2.43458271068983
H         1.21786626978280    0.21420524174644    1.55778804281767
H         0.03355285022082   -0.77694505732260    2.41892888090484
H         1.20328390246012    0.19309585476434    3.32279606995241

