26
CSD_code = MUHHUU | q = 0 | S = 0 | Stoichiometry = C10H14CuN | MND = 6
Cu        6.64649494752881    2.26184630818958    0.94106081169699
N         5.04366222639864    1.52407111886743    3.29794637046479
C         6.62175078969812    2.20310858521766   -1.29325720580225
C         6.69959295183040    3.53570864707537   -0.83584719233227
H         6.01760958403277    4.32834160360054   -1.09735521480160
C         7.87414675509298    3.67641023741894   -0.06273666148393
H         8.25671750734313    4.59816888874474    0.34388016423721
C         8.52424189788411    2.42086669491851   -0.03319825359117
H         9.49102739243235    2.21742382178431    0.39729602389486
C         7.74575955369349    1.51463921973780   -0.78947181231591
H         8.00562054988912    0.49244254842928   -1.01167543766583
C         5.58368608919986    1.64489588774818   -2.21413945267226
H         5.87795806490836    1.79027398887975   -3.25621405022175
H         4.62443574494983    2.14055827608700   -2.06601217536912
H         5.45276540974064    0.57555200216782   -2.05007646246740
C         5.68415723314823    1.80656808542926    2.36687246126481
C         4.25397791300773    1.11216457002223    4.38002350301803
H         4.20647613348461    1.95471387999855    5.08258283909163
C         2.84800760595196    0.78034829157495    3.87849981498894
H         2.40775550534392    1.64184228000126    3.38269151492327
H         2.21728389889866    0.49650588307700    4.71635226403037
H         2.88773158049272   -0.04444217068336    3.17114104449270
C         4.91445914645972   -0.08752325240644    5.05997682034602
H         4.97840959708957   -0.92285382799285    4.36694583962410
H         4.32640569953044   -0.38900075390171    5.92238103603580
H         5.91836622196989    0.16706918601447    5.39033341061431

