30
CSD_code = MUHHEE | q = 0 | S = 0 | Stoichiometry = C12H16CuN | MND = 6
Cu        0.84576310197699    6.87926370986832   10.96699422210302
C         2.05701527558841    5.78817221089518   12.39020100332119
H         2.35247113604602    4.75295458915400   12.34173641478404
C         0.91842643716792    6.29315550477678   13.05118501808933
H         0.19190890225212    5.71076768441195   13.59373779785851
C         0.95073355709245    7.70047114373417   12.96270560939016
H         0.25517201735826    8.37950941555333   13.42815331382835
C         2.11053926333161    8.06570670717726   12.24642692191095
H         2.45592779329120    9.07182604749221   12.07333320196655
C         2.79425516231108    6.88296261012915   11.89269997219788
H         3.75204369790265    6.82954391639090   11.40160730567973
C        -0.09421323230807    6.84175919473619    9.45557916226347
N        -0.72270781809490    6.84477016873633    8.47540513174981
C        -1.51305046026951    7.00338052387414    7.33327721589983
H        -1.55825471314213    6.02724161023757    6.83272609209168
C        -2.92612427581484    7.44411026716707    7.74149033359217
H        -3.54963673951105    7.45286900130624    6.84563651162430
H        -3.34467198649649    6.72033916463859    8.44315934143573
C        -2.90256066998203    8.83424782714217    8.37007224348557
H        -3.92038290137381    9.13353593296770    8.62472770567765
H        -2.31922590899760    8.80414018324998    9.29311754569816
C        -2.28352170693886    9.84542898856076    7.40974122432825
H        -2.26412794833842   10.83193564870377    7.87465937505798
H        -2.89424514854360    9.91181198868583    6.50600795572547
C        -0.86558797068057    9.42261721721641    7.03726875889061
H        -0.43111967823489   10.14110093962637    6.34052704789711
H        -0.24332181618137    9.40489693269688    7.93484455053820
C        -0.86983800197481    8.03713669981217    6.39793506912509
H        -1.44549224049778    8.05826113656840    5.47078663281895
H         0.14992687306210    7.72868303448996    6.16065732096915

