55
CSD_code = MUHWES | q = 0 | S = 0 | Stoichiometry = C24H26N3OY | MND = 13
Y         4.23230341891395    4.00551011005874    3.12610820306410
O         2.57335574479330    3.09747902784798    2.85915294977914
N         1.90447702706047    4.06652658047572    2.07359119913664
N         4.51836647678208    5.07154792220607    0.93672602504283
N        -1.94970235498788    2.30222631375766    4.32967436625596
C         5.34873022025854    1.72060781324266    2.61867578494271
H         4.77826232159254    0.86035016812365    2.29404469184534
C         5.56402942175880    2.09602204256294    3.97000808823368
H         5.23152362793134    1.53791753716209    4.83831064991801
C         6.51892280538386    3.14659939620618    3.97202937687666
H         7.00358002890683    3.55556148090386    4.84885489694580
C         6.86610097325430    3.42307829438766    2.63750956455384
H         7.63202442969633    4.11357789812505    2.31347046077637
C         6.14993908424201    2.54431676409728    1.80486825613301
H         6.27930271688206    2.44784318120114    0.73515764317127
C         3.76438432604976    6.93631094251636    3.70236432022994
H         3.94021533706848    7.73394228023150    2.99534825016734
C         2.53587104895040    6.63017638854177    4.28830680123426
H         1.60469856817717    7.12765446610615    4.07271731411297
C         2.71978519853519    5.60603670844147    5.21691313850430
H         1.96601263092280    5.19369105048423    5.87067185465405
C         4.08089192073892    5.23521267558968    5.21217756523838
H         4.57621444970994    4.69327826424366    6.01452335605180
C         4.74757061118102    6.08614872326743    4.25176873957490
H         5.81751238570558    6.27677702476685    4.23931925890087
C         1.72101381449902    3.54626639785965    0.71728775570233
H         1.12248146651855    4.27142877574919    0.15701956006942
H         1.20148290211779    2.57876280988683    0.73236970534048
C         3.07897832934666    3.33594784815153    0.02615685381365
H         3.65787249557707    2.64010277698705    0.64404005871659
H         2.90649730753592    2.88848771059956   -0.95395710830201
C         3.83336224927168    4.62074226369577   -0.12481912452322
C         3.81130837162203    5.31274376541660   -1.33361549827390
H         3.23777360657340    4.92269602314310   -2.16056566162957
C         4.53002875044006    6.48542826288603   -1.46647183419424
H         4.52612651398721    7.03400275343654   -2.39632519099817
C         5.26674643156232    6.93040886199886   -0.37906568697819
H         5.86098377157658    7.82819065548699   -0.43676709286216
C         5.22489436935273    6.19674580088796    0.79182957581965
H         5.79624758596199    6.51830770368161    1.65384869898601
C         0.62260818429526    4.41016845956305    2.69873177442248
H         0.19130193677245    5.23276012088913    2.12047356497798
H         0.86573142122012    4.76850661111411    3.70090564368505
C        -0.35094383660488    3.23217636240502    2.81522617732485
H        -0.83219745153567    3.03008739633458    1.85350797930562
H         0.22019718387371    2.34432118902786    3.09863948298109
C        -1.43212536647113    3.42361505197438    3.84059892400615
C        -1.88700172063463    4.67647136327202    4.24415073688315
H        -1.46230426626798    5.57808031321915    3.83275727567291
C        -2.89710155129833    4.74877553810602    5.18866384879930
H        -3.26411805055564    5.70917793053127    5.52238043740152
C        -3.42869534340063    3.57484993215021    5.69753826156283
H        -4.21537065041376    3.58862506639961    6.43565982671723
C        -2.91500126903377    2.37700067743965    5.22606466792369
H        -3.29074960538631    1.42642852315635    5.58334363231646

