113
CSD_code = MUHZIY | q = 0 | S = 0 | Stoichiometry = C46H60N4O2Zn | MND = 4
Zn        4.98286757088787   19.02071636358817   10.56845211319142
O         5.27140849518590   19.03196030266496   12.34449838144563
O         3.28524210481920   18.98937294932647    9.97934798712401
N         6.44642548746819   20.32522707158335    9.80875261082097
N         6.03321992380769   17.74403636842929    9.26575318028963
N         8.42814278274681   20.28388080218875    8.56466310993370
N         7.75530206618472   17.78969950539722    7.67896143244448
C         7.29042209470489   19.73156015319588    9.04657928223282
C         6.99372276507973   18.33651577322187    8.65504587407832
C         9.42876866302034   19.49211022596414    7.88665379460382
H         9.97505378038905   18.86566523951968    8.61123271335109
C        10.42055652433911   20.37428576677001    7.13622087300587
H         9.87660212390323   21.00784871751021    6.43278292291770
H        10.94574365631811   21.02133658057022    7.84101940079901
C        11.41908822956269   19.49805996914652    6.38261524993596
H        12.00113389906079   18.91582627604502    7.09988519006734
H        12.11134018184045   20.12955777471316    5.82499677607806
C        10.69852502315795   18.55112816581518    5.42574125728422
H        10.17752498308071   19.13292979367174    4.66263871625610
H        11.42552703560010   17.91393885963981    4.92139423819215
C         9.68964172024991   17.68278727896105    6.17464455845492
H         9.15974076770769   17.03342314905113    5.47553983922968
H        10.20827359835965   17.05178502854066    6.89919752059260
C         8.69335956157830   18.57393110980023    6.90893845979318
H         8.15701367319432   19.20014874297550    6.17678907603535
C         6.59707838801152   21.65798178993930   10.20438411964687
C         6.46081539377550   21.96695979156386   11.55643263335097
H         6.27993174834521   21.16307175769467   12.25236480764186
C         6.55136869748356   23.27691083501105   11.97592397056596
H         6.44770862626875   23.50600819000385   13.02594084747994
C         6.75873470940663   24.31288862967275   11.06856183332684
C         6.87486351006006   23.99788659927746    9.72164903663785
H         7.01637764516750   24.78768168691377    8.99714064625027
C         6.80418828110641   22.68636199522850    9.28659560767519
H         6.85476675906483   22.46390232612686    8.22952684585014
C         6.81677532763750   25.73260839120401   11.54134030685255
H         7.17625837357986   26.39356003318053   10.75646831073586
H         7.47096801219204   25.82292336203618   12.40660415328315
H         5.82290396935334   26.06498137396088   11.84108383861638
C         5.67155552146790   16.41836097201988    9.00942811501504
C         6.59935839277747   15.37810063882150    8.98186682263414
H         7.64479408659539   15.57976204728753    9.17102229111062
C         6.17361785900465   14.07588138228470    8.78727100523960
H         6.90216869506103   13.27708844736815    8.78683821774628
C         4.82985952778209   13.78121008152850    8.60280856237616
C         3.91139848137599   14.82767452472000    8.63846021145384
H         2.86076074118848   14.61359430312494    8.51147634832166
C         4.31750828036583   16.12791659592808    8.84805478655550
H         3.60775084429148   16.93854274927314    8.89872455686369
C         4.36322419127643   12.37219082493322    8.40533643674128
H         5.20189555703656   11.70020349679887    8.23876151248885
H         3.68548138817757   12.30838393368589    7.55548266576822
H         3.82089995529014   12.03302850533820    9.28797674820581
C         4.59756544184340   18.45451674347373   13.33582779958208
C         4.67614089371198   17.06213765129421   13.55624227982100
C         4.09382620710464   16.51426203322621   14.68545140159127
H         4.17279184895050   15.45332476244539   14.87078701838098
C         3.40997229370766   17.30489390590788   15.59087232275199
H         2.97247570893188   16.86496370618000   16.47580533998391
C         3.27350342445361   18.65830493403094   15.34403951293377
H         2.71588301737333   19.26755688990330   16.04075858509163
C         3.83908583110715   19.24440959732090   14.22510370514994
C         5.40566399094549   16.22019960534153   12.53835453201620
H         5.22058991317305   16.68664033069975   11.55966084478490
C         4.91710262694914   14.77656237127029   12.45923540605524
H         3.83419000056567   14.74657403304280   12.36647902160439
H         5.21061773295240   14.21314935257916   13.34236105036810
H         5.35011596688430   14.28849396572797   11.58708230353977
C         6.91364717013936   16.26461352857469   12.79760925450883
H         7.25838978000339   17.29549758602084   12.77876533028285
H         7.45016965442250   15.69713513594982   12.03752122874092
H         7.13914151115650   15.84050958149476   13.77456170932275
C         3.67288852924162   20.72025176398505   13.94989846649705
H         3.96101550290414   20.89027105240404   12.90662657438684
C         2.22423408378572   21.17742920159042   14.11300515033260
H         1.56189082701233   20.54599586318660   13.52655256395435
H         2.11467229815626   22.20265748743628   13.76310051493928
H         1.91250998983273   21.14211345819148   15.15446950241661
C         4.60073342986361   21.53781736733079   14.85221070190907
H         5.63442423661808   21.22860470605216   14.71243932963066
H         4.33898969468609   21.38578823688902   15.89775882365179
H         4.51550621732115   22.59945807556454   14.62493372650742
C         2.18467388158425   19.53374530527486   10.49292658159100
C         1.19876237048310   18.71058664586658   11.07562299702290
C        -0.00825401880109   19.26472563665702   11.46505970536529
H        -0.77487306317011   18.63071877497225   11.88687907019703
C        -0.25500471668118   20.61747807870563   11.32236796675176
H        -1.20725302087285   21.03291957897326   11.62023441774225
C         0.73409848848838   21.43917374699395   10.81339650477167
H         0.54324867517506   22.49878049448698   10.72957936097274
C         1.95341282795830   20.92399255368107   10.41057408365620
C         1.46998870750370   17.23452930420401   11.24687970070677
H         2.54807711366413   17.08504084201541   11.12052491224663
C         0.73765109977497   16.43068505534115   10.16935304023720
H         1.03201877421573   16.77035751151450    9.17872273678858
H        -0.33851735349117   16.56120205125130   10.26805188662966
H         0.96779512429474   15.37025176694905   10.26251565475021
C         1.09024042254425   16.73720136349690   12.64083714668839
H         1.56074758888783   17.35415891404031   13.40198982341900
H         1.42920601834220   15.71138658770024   12.77640827704924
H         0.01281591118421   16.75779471008768   12.78867298730776
C         3.06035378164747   21.79912011658504    9.87558721418802
H         4.00495122560108   21.34421472433112   10.20839620965937
C         3.02979624187915   23.23196687521255   10.39996189692225
H         2.94790285488814   23.23843583123018   11.48417769447454
H         2.19299828159335   23.78635577037307    9.98037264130518
H         3.94919754980381   23.74532553543677   10.12146383697211
C         3.05316960209286   21.78680462424720    8.34492970970687
H         3.14412743220913   20.76459685375185    7.98629844675378
H         3.88293081013656   22.37484110288016    7.95347447550988
H         2.12054933738663   22.20508468577626    7.97034988643897
H         8.71135136525694   21.16541914150875    8.97212588234204
H         7.43283918724409   16.91397565612201    7.28888145449546

