49
CSD_code = MUJJOQ | q = 0 | S = 0 | Stoichiometry = C18H22N2O2S4Zn | MND = 4
Zn       11.07552751901678    8.24198837876778    5.31451286603036
S        10.54488306965488   10.31611510909612    4.19861016475038
S        11.19036958332889   10.27943816892313    1.31554930538248
S         8.96748869117298    7.11708321656976    6.17478172210207
S        11.15164146538672    8.20288804697658    7.83293252136485
C        10.84649252324740    9.51852076556827    2.72428880262688
O        10.78200102345648    8.17473295825849    2.85309779244568
C         9.63110444730534    7.48411154826799    7.68114184501433
O         8.89676411621085    7.13277895374376    8.70684661081950
C        10.62615036272924    7.37390301079085    1.66709631316244
H        10.11196510627276    7.99708542178763    0.92298822104089
C        11.98098079053300    6.95578613390413    1.10670347648985
H        12.58308382142038    7.83638768736255    0.89532185336162
H        11.83248937988087    6.40571168921398    0.18183338309996
H        12.50758101754579    6.32100916230061    1.81643315560529
C         9.76189835414455    6.17850274532184    2.04121526217520
H         8.85845240816369    6.51500007378848    2.54341300453867
H        10.30254299334680    5.51580140834133    2.71322033511861
H         9.48757211414520    5.63056174113523    1.14436618970418
C         9.31658063689365    7.42404982811132   10.04932891000991
H        10.40641286432284    7.29783369576924   10.10078041165415
C         8.94739041176328    8.86033077226798   10.40166414775951
H         9.45581067936395    9.55314356758310    9.73548171048665
H         9.24727853557203    9.07547196851454   11.42294378640173
H         7.87345467327724    9.00121839517429   10.30536024788591
C         8.61639998959792    6.41338011418178   10.94594337541347
H         8.87946533344595    5.40121400127469   10.65012224432955
H         7.53930495817734    6.53085642009632   10.86209723169389
H         8.91454634533866    6.57051352117221   11.97817381185102
N        13.19469023322732    8.77698906690401    4.90131741549849
C        13.59796636046519   10.03357085214079    4.80349483448621
H        13.10883667518317   10.74016816673241    5.45846251336589
C        14.57696216640796   10.43688974975372    3.90858246528420
H        14.86539706151352   11.47349925442317    3.85093187915532
C        15.14333736711662    9.48438343178405    3.07706230690008
H        15.87731781295625    9.76441572092435    2.33661099109170
C        14.75009783033346    8.16289613111699    3.20606785576794
H        15.16654178838256    7.40344534398788    2.56348224321914
C        13.77244880690024    7.84335576241212    4.14519099070255
N        12.06599043205449    6.34786813389272    4.87074088000630
C        13.29167570843014    6.47034567918852    4.36093194537742
C        14.07269450759031    5.35151136769208    4.07338990925791
H        15.07430878759508    5.46800910363037    3.69188320380035
C        13.55178889490750    4.09084508872503    4.30790998441117
H        14.13906730561832    3.21004546523548    4.09572746391913
C        12.26854130590803    3.98086266809451    4.82064541451961
H        11.82196993559504    3.01867430351023    5.01217510191659
C        11.56446708085718    5.14399583984741    5.08949810080924
H        10.55976672414604    5.11681036594515    5.48974579816057

