109
CSD_code = MUJKOS | q = 1 | S = 0 | Stoichiometry = C50H52IrNO4P(1+) | MND = 9
Ir       12.17823655650671    3.91958031365558   11.20690104594240
P        10.35105554015238    2.97046569060169   12.17027532517482
N        10.77012777041692    2.08768539829893   13.50886514558471
O         9.02170190161827    3.73829501327540   12.63238741211547
O         9.80161138505831    1.94488046866738   11.04204217935265
C        12.30791608641390    5.16458796776965   12.88519216508540
H        11.91372865014530    6.15161034991001   12.63860503914851
H        11.85734278603825    4.80573988875394   13.80745016330930
C        13.76495051380704    5.10596703829175   12.89540884248761
H        14.21669201410250    4.33713095197047   13.51076112927712
C        14.57963196341071    5.92542176611370   12.20627962768944
H        14.17312449857278    6.76191946751305   11.65305840915185
C        16.06264374667823    5.82377969091711   12.20704666436316
H        16.45047138883259    5.80032048966637   11.18836505327849
H        16.39817422530962    4.93543346432895   12.73592979023714
H        16.49397027325210    6.70222010519283   12.68817864215879
C        13.90388165863190    0.48787710879165   14.71758467701274
C        12.67188527202080    0.59838381259988   14.05683648735237
C        11.91906947471642   -0.53955803536583   13.82896421559938
H        10.97530986216580   -0.44257197981772   13.31493617865003
C        12.35129672448720   -1.77977696254793   14.26698440374351
H        11.74967975229053   -2.65751154533660   14.09039113730029
C        13.55652020782644   -1.88183260924525   14.93444431864967
H        13.90457402765487   -2.84138812990631   15.28468968958967
C        14.33365297591552   -0.75708094873447   15.15811497313015
H        15.27365158990088   -0.86543781895189   15.67481923152819
C        12.22651101453554    1.96344128462576   13.58272867801138
H        12.62194074754043    2.69757169394719   14.29412432941242
C        12.81857638774521    2.19464869503765   12.20339542215371
H        12.55930364565841    1.33159888788636   11.58162073855496
H        13.90804115334483    2.23754912302946   12.28999773054603
O        14.60874149486589    1.64888720524214   14.87365364912914
C        15.83925882407920    1.60174009434033   15.55918063254013
H        16.19224982174073    2.63130375302868   15.60144148548166
H        16.57252227044603    0.99006025278160   15.02477953337032
H        15.72259414300304    1.21946473688342   16.57726347221438
C        11.39303106160956    2.81264688458730   16.82685756658571
C        10.52619240652408    3.08901317258362   15.75535721007469
C        10.08682180305819    4.38821477428366   15.56531850501738
H         9.42084917706319    4.60104387534105   14.74498253062323
C        10.48363424785172    5.41272075742769   16.40890673301341
H        10.12687639662526    6.41780858770611   16.24691793338700
C        11.33410616660541    5.13449535242476   17.46126119144079
H        11.64944298622034    5.92130132806299   18.12918846197205
C        11.78734004896784    3.84368184728796   17.67254319181674
H        12.44666945608205    3.65117018380082   18.50329097673874
C        10.11934540980476    1.96711360083329   14.82483966903452
H        10.53134523657486    1.04260845745605   15.24398982585223
C         8.60794113698341    1.78750482051335   14.74699790786244
H         8.35754627152223    1.02817145550093   14.00966533222534
H         8.09264142406509    2.70849451612107   14.49806279555358
H         8.25096360481423    1.45431410333637   15.71870690023131
O        11.79730633017306    1.51781521838278   16.96266518155288
C        12.65040662679530    1.17886917962584   18.02943519406803
H        12.84235821388517    0.11263585563196   17.91798407295900
H        12.17690396875406    1.36334398170144   18.99825209790493
H        13.59627252046571    1.72677424701444   17.97674689335139
C         7.31824649270016    3.28199049680518   10.99241245221154
C         8.08982114931774    4.18008390089688   11.69593320538191
C         7.93329100632391    5.56763683032606   11.54917469658228
H         8.51739555681455    6.21743560287521   12.18306833509386
C         7.03489859350870    6.05850103116892   10.64625749828040
H         6.88948636550278    7.12271636812288   10.54165807690840
C         6.30182157799241    5.18373967534943    9.81653336272157
C         5.42928968217753    5.67426068340796    8.82287536320798
H         5.31461740236239    6.74306089775119    8.71992370779375
C         4.75152524608609    4.81769788837772    8.00152397891570
H         4.08548606480877    5.19980368376905    7.24340525382900
C         4.93068048492859    3.43255199035037    8.13075750410525
H         4.41182080415994    2.76576892602335    7.45929749300374
C         5.75627539802419    2.92405401049840    9.09517013305368
H         5.89543077642691    1.85747813606157    9.17923943582174
C         6.44692905277386    3.77972588768115    9.97959842918352
C         7.41043212222377    1.83953499227407   11.28843923884928
C         8.63663631231232    1.21369720065933   11.27729764959456
C         8.76311016168816   -0.17172205696769   11.45689486466263
H         9.74612820394675   -0.61063943218051   11.38746939933336
C         7.65211796103841   -0.93018928223550   11.68898847386555
H         7.73594757185882   -1.99935865718949   11.81055418180837
C         6.38169240100574   -0.32749050664135   11.80435664728541
C         5.23585568928591   -1.08888824373902   12.11570432653785
H         5.34492803312374   -2.15581472323105   12.24143849803906
C         4.01735540862142   -0.48963490514854   12.26761162406265
H         3.14478786467444   -1.07764457491760   12.50678847314085
C         3.89842601780235    0.90113158083058   12.13063051985309
H         2.93752691217369    1.36858781651377   12.28210160190900
C         4.98671960408766    1.66601241554283   11.81343922864632
H         4.88415115668798    2.73637176007596   11.72533296926549
C         6.25290291926496    1.07508968711062   11.61661313474701
C        12.07271691043217    2.74338717413566    9.01871838869093
H        11.81359633879211    1.73751817123289    9.32279946149274
C        13.31926611592901    3.19803764036803    9.29872243810623
H        14.02602196822369    2.49755385108987    9.73650420580687
C        13.98434207898129    4.42872986718510    8.73516350539676
H        14.81944871185818    4.68961506398552    9.39065016710785
H        14.41842813897999    4.16671432869246    7.76389636157397
C        13.08311456989324    5.66433281095331    8.56561460911180
H        12.53318747194490    5.60816987552271    7.62668125761799
H        13.72919878987102    6.54249515195256    8.50265706127089
C        12.10682024714580    5.86708099029164    9.69451927999074
H        12.33973323899612    6.68896768087367   10.36059977597689
C        10.85681313912648    5.34873881910661    9.75846292259178
H        10.15884925012336    5.79170613585281   10.46147871557257
C        10.19222389712731    4.44665706399332    8.75634707655220
H         9.37255639135086    3.93024480960390    9.25970805535512
H         9.73792897181678    5.07581709593978    7.98340510779380
C        11.09414835459484    3.39697359642515    8.08411816450372
H        11.63839907315627    3.84064096321046    7.25071827151657
H        10.44503750412362    2.62452094663455    7.66867762657480

