77
CSD_code = MUJLEJ | q = 0 | S = 0 | Stoichiometry = C28H42ClN2O2RhS | MND = 8
Rh       -0.15343932413498  -10.53317178887436    5.74889813067760
Cl        0.00118603263214   -8.25200664188165    6.09144138390240
S         0.62645444615142  -10.30736965555546    3.48961092213523
O        -3.51385561564450  -10.74162135950541    0.59268673549883
O        -1.84785099499615  -11.97331795008656   -0.36546297684192
N        -1.64508279951540  -10.00362312946778    4.45547266432731
N        -1.32539857816337  -10.35205717557101    1.02690647075030
H        -0.38458375793809  -10.69054484383009    0.89307185275779
C         0.10560033789922  -12.68135372011077    6.17642930007374
C        -0.92163380210637  -12.25943410881681    7.07368245959740
C        -0.40273152590310  -11.18804094638197    7.85888168170879
C         0.99606592396494  -11.02438744181436    7.52551506186473
C         1.31051946823341  -11.94885620469490    6.49702178331655
C         0.04403449932263  -13.87898941473282    5.28148089524109
H         0.49438745598209  -14.73565496382549    5.78713105971472
H         0.59234464179600  -13.70628785156326    4.35750550506278
H        -0.98462987635276  -14.13007449864580    5.03438817496956
C        -2.23434137362664  -12.95503172965246    7.25212208933800
H        -2.80256361499188  -13.00991771362015    6.32452783738484
H        -2.84351916717021  -12.45905459884741    8.00344776548838
H        -2.04558653901498  -13.97623796920201    7.58785522167323
C        -1.06230199664763  -10.49862876210532    9.00972460016817
H        -0.69294714164667  -10.92069932266945    9.94644618647094
H        -2.14312344058497  -10.60989998653143    8.98030797551637
H        -0.82469658021490   -9.43666001363049    9.00079323909850
C         1.94435643709334  -10.15711588291811    8.29070430005559
H         1.56885896882514   -9.13701045561746    8.35542980785786
H         2.92205164059425  -10.13290720015429    7.81710879873308
H         2.05420908994988  -10.54668144819525    9.30409266992176
C         2.66703124144185  -12.25144376128097    5.94357390240533
H         3.31826955243852  -11.38252422190383    6.00127831830255
H         2.60382286630743  -12.56283988437398    4.90319750147004
H         3.11750413015419  -13.06232190819015    6.51980431697048
C        -3.91388295800875  -10.72304064657878    3.95907816700668
C        -3.45756596182117  -12.02322160680378    3.79462615583124
H        -2.44919584135019  -12.27470580191783    4.09747636373169
C        -4.26928032038640  -12.98528833602015    3.22283323127162
H        -3.90188864416865  -13.99388101696829    3.09580483188053
C        -5.54547800791984  -12.65489248555772    2.80267332745150
H        -6.17667090263733  -13.40417093399336    2.34746973139770
C        -6.00317377855192  -11.35797383718055    2.95402992259407
H        -6.99211456484479  -11.09081077525172    2.61292690641326
C        -5.19270721703905  -10.39782944963777    3.53068655895778
H        -5.55075699556725   -9.38413254677141    3.64079048181725
C        -3.04567095725862   -9.67277334325023    4.62164921053966
H        -3.23995708183000   -8.69404054994100    4.16212415472561
C        -3.37668813911440   -9.56823644554460    6.11129583160431
H        -3.26307386013471  -10.53946550195890    6.58495534682121
H        -4.40284792614933   -9.23285003585683    6.23853316110727
H        -2.70412809558353   -8.85273020350139    6.58116168461728
C        -1.00895822674334   -9.83742043229447    3.34367785688086
C        -1.54118030587308   -9.33251946383153    2.02788954381383
H        -2.62559996980813   -9.19072860963336    2.07483797849006
C        -0.84812725264508   -8.00977427890685    1.64381853952679
H         0.22959988984050   -8.20165691634485    1.59800050668234
C        -1.11564396237970   -6.94833208540778    2.70703418930543
H        -2.18107537175575   -6.73515732226889    2.77246661114678
H        -0.59912970279452   -6.02673045332719    2.45112673861350
H        -0.76312868147485   -7.27103914837026    3.68448342986429
C        -1.33506032182067   -7.54255110339447    0.27598767375998
H        -2.40912585869944   -7.37102625511876    0.29669557959925
H        -1.12296112649786   -8.28847345710649   -0.48570553751375
H        -0.84002737967085   -6.61465469404499    0.00040949746004
C        -2.34776940733487  -11.01273289101259    0.43206484815986
C        -2.72850743098520  -12.77347028244699   -1.18976955039272
C        -3.67137149968288  -13.59536933611985   -0.31176121072885
H        -4.28957491059168  -14.23578690082781   -0.93492427639630
H        -4.31072982126615  -12.93406374496279    0.26670867244924
H        -3.09597738496870  -14.21493769253668    0.37295201308036
C        -1.78026350922495  -13.69003371820150   -1.96455077451555
H        -1.18882302140414  -14.28355634246780   -1.27246757859227
H        -1.10414006494893  -13.09706540612471   -2.57465272894609
H        -2.34934984367560  -14.35482488176705   -2.60750447488978
C        -3.51474396648272  -11.88238918527400   -2.15094886746911
H        -4.09598240648376  -12.49978429717780   -2.83022276606939
H        -2.83179364191403  -11.26496087752486   -2.73088455008699
H        -4.18738417286529  -11.23565014999131   -1.59455206738341

