77
CSD_code = MUJRIS | q = 0 | S = 0 | Stoichiometry = C44H20Cl8N4Ni | MND = 4
Ni        4.08288548725412    3.15785084812709   10.16426621865031
N         4.04035059167672    3.41525178225762    8.24170941415852
N         4.17496433283468    5.07756380501872   10.43011083181195
N         3.83990996683115    2.89456203792475   12.07108195513783
N         4.28176526279193    1.24406492651209    9.91449754685893
C         3.95385082204254    2.42384112039449    7.30441927071701
C         3.41825303300732    2.96032872294109    6.08324497582791
Cl        2.97743275820000    2.10737699769425    4.67732036895254
C         3.25186567305730    4.30121387450038    6.27929607101100
Cl        2.55609240931827    5.38232811442976    5.16359952794408
C         3.71311568236339    4.58647951739649    7.61124145741381
C         3.98676218216330    5.85325924507104    8.11955656775216
C         4.36846038029129    6.01170892065902    9.45085379420937
C         4.90365927882002    7.21344310419838   10.02998524015612
Cl        5.45554701496247    8.60373611737954    9.21698735636933
C         4.96145708391937    7.01119072555281   11.37896065452531
Cl        5.61100907572827    8.10189834990455   12.51302026851339
C         4.43471996183019    5.69574875643299   11.62461249976263
C         4.04885185283539    5.19680903569010   12.86563069790842
C         3.61061964951072    3.87950875699094   12.99094939034668
C         2.96637466156026    3.31885289275383   14.14702633338139
Cl        2.33933888559305    4.14995426516339   15.49407352074727
C         2.87727893891562    1.97278914052711   13.93688300349814
Cl        2.10781454932689    0.86172090259977   14.97182816119258
C         3.49335248462073    1.70953416665836   12.66436355902510
C         3.87262461469838    0.45610846288156   12.19203575890286
C         4.40441516216180    0.31637606699603   10.91115068103358
C         5.04839650049498   -0.86130445617807   10.39701759453841
Cl        5.56359624341416   -2.22982653947006   11.26891204866145
C         5.24583675621746   -0.65383529542556    9.06210052361450
Cl        6.05970941201528   -1.71473138859791    8.00864194047863
C         4.69610890946453    0.63961556907146    8.75713562691227
C         4.42891626944556    1.12519048858747    7.48009087134453
C         3.89991908164561    7.03760314352296    7.24276493804527
C         4.81757548233335    7.22072154443733    6.21368726080884
C         4.73638389261613    8.33808963945476    5.40423141994294
C         3.73482636877590    9.27309199904058    5.60696643515422
C         2.81606554779812    9.09143220166505    6.62682419171611
C         2.89989533121518    7.98190118929614    7.44749090788013
C         4.07608685597071    6.06956881741264   14.05578543454298
C         3.18272602249442    7.12924999660590   14.17260110724956
C         3.20685174565236    7.93470045186497   15.29559870778436
C         4.12744978269277    7.69714445760085   16.30281427688080
C         5.02206939005630    6.64658813960775   16.18755133486477
C         4.99439322806008    5.83008336417764   15.07210319766951
C         3.73841152552172   -0.73286526714642   13.05649140197901
C         2.80625080656313   -1.71664842593763   12.74523841552383
C         2.67799094874316   -2.83051192999655   13.55424395452025
C         3.48559956935389   -2.97678771904947   14.66943544261485
C         4.41989675508101   -2.00222570519902   14.97888560058052
C         4.54415888093142   -0.88077695548240   14.18056286710521
C         4.62208186382751    0.25696501624868    6.30200137127785
C         5.63588113925239    0.53587304920002    5.39204779135891
C         5.81895353811748   -0.27630857502002    4.28814966506512
C         4.98586257090496   -1.36210908796225    4.07774808795053
C         3.97072866488562   -1.63917962358917    4.97838232770718
C         3.79076232211857   -0.83790251247002    6.09017886956097
H         5.59577699040225    6.48729905739797    6.06114835074911
H         5.45533471719456    8.47839670817985    4.61081435924617
H         3.67050908960598   10.14272605370058    4.97013490330897
H         2.03311596905044    9.81789461952676    6.78619639527283
H         2.18772225916598    7.83454170996952    8.24614212639023
H         2.46728981290932    7.30841168627083   13.38340324525513
H         2.50618455569892    8.75159027924461   15.38435177206840
H         4.14720694290887    8.33045696664779   17.17719299733829
H         5.74237103831734    6.46028660640556   16.97025755981090
H         5.68838229445242    5.00795978517176   14.97598642437069
H         2.18033488216627   -1.59632689193324   11.87317270404841
H         1.94725815680713   -3.58771662902639   13.31165590656758
H         3.38743042560606   -3.84992693573698   15.29709873111405
H         5.05286295459041   -2.11523877880389   15.84644916258435
H         5.27042491130326   -0.11664000031645   14.41599619060136
H         6.28116574129902    1.38526736713195    5.56196821727458
H         6.61259984583171   -0.05910680357989    3.58878991630331
H         5.12696620873712   -1.99190548405523    3.21203301041001
H         3.31772969472592   -2.48356516686504    4.81498229072450
H         3.00097630724979   -1.04781039226662    6.79653699739644

