71
CSD_code = MUKBID | q = 0 | S = 0 | Stoichiometry = C33H30NO5PPd | MND = 4
Pd        8.34422431286697    2.58580105455665    1.43670605771417
N         9.85770268678226    4.23435794005258    0.71977228912441
O        10.77747732447895    6.26019769143486    0.65177849344439
P         9.83946421863527    2.63700680652531    3.12088332790653
C         9.99927916723156    4.50399093306525   -0.70422436632005
C        10.67224893339367    3.33107987746972   -1.38994342937490
C        11.71877950343639    3.45834447303606   -2.29063331922788
C        12.26659769641866    2.33344891557616   -2.88656469199864
C        11.77166671159158    1.07446942411427   -2.59891207711884
C        10.71409474851876    0.94178371040475   -1.71466322129919
C        10.16867047723368    2.06244606211503   -1.11773617039305
C        10.72984343637591    5.86809287338321   -0.71579952235983
C        10.29357754474737    5.22962625634914    1.38448574371258
C        10.32677514131377    5.38965453475873    2.83479721148277
C        10.54205239683801    6.67467888984178    3.33325067617329
C        10.56513246560088    6.91492466943158    4.69320487054644
C        10.37306586102081    5.86714431944861    5.57900035486691
C        10.16831600177079    4.58635679274814    5.09875225532313
C        10.14970451581965    4.32140562175760    3.73257386223823
C         9.57565064807853    1.65003970411157    4.62407884074661
C        10.57614258491142    0.98404599559368    5.32192374715676
C        10.24150555571164    0.20083416199400    6.41302252167179
C         8.91823194479776    0.08115228338158    6.80712335676637
C         7.91800637371578    0.74177817682037    6.10971077047051
C         8.24465635328607    1.51757006576592    5.01445729868297
C        11.47702789356695    2.12539949496749    2.52031809154797
C        12.67110631940839    2.74894905760085    2.86174561865993
C        13.85943487774112    2.30409614083149    2.30877717877933
C        13.86163690570925    1.24037850878102    1.42111725552381
C        12.67303965566902    0.61308657844978    1.08308408082868
C        11.48282568570515    1.05648981959256    1.62754807194126
C         6.58014612990555    1.50476997961905    1.37304258196080
C         6.65531884998330    2.33075155988849    0.24045763036161
C         7.35536331466109    0.27430863551431    1.40480065337164
O         7.24313418216954   -0.35324187146133    2.60831313514850
O         8.03981100330005   -0.17423659954222    0.49742872715143
C         8.11487272074420   -1.44761418076178    2.81840509882847
C         6.36664321705777    3.73800079856108    0.43149937748415
O         6.44416879573926    4.45619055149815   -0.72647720167701
O         6.11488173490251    4.27363751048298    1.50093589557851
C         6.28689432574279    5.85490946390312   -0.57252032607594
H         5.95472698661736    1.75510798105289    2.22850058261447
H         6.85424096547240    1.95037704893828   -0.75726807768236
H         8.98689403098285    4.59252553857381   -1.13112183134265
H        12.11217599882866    4.42901418594215   -2.55400864666586
H        13.08237915739631    2.44835399903825   -3.58542439334228
H        12.20214059519865    0.20351113295820   -3.07069014183304
H        10.29855528870993   -0.02833839527904   -1.48849618717658
H         9.32221089981101    1.94615768176527   -0.42619244549453
H        11.76032546945127    5.79998550569772   -1.07543453402396
H        10.19636982019275    6.63346767889965   -1.28302290833752
H        10.68180235237293    7.48541845088789    2.63492876755922
H        10.72677020929959    7.91693100165261    5.06076761565512
H        10.38448137123986    6.04615996710510    6.64393547687217
H        10.01976223729175    3.77183081891582    5.79347291603759
H        11.60638466992029    1.07676845916990    5.00648819647146
H        11.01571744840478   -0.32140895109778    6.95640543110829
H         8.66561114231383   -0.53587473236359    7.65701410430283
H         6.88717590438232    0.63913329546933    6.41437224085950
H         7.48000741544675    2.02871939761872    4.43413575064795
H        12.66880718951780    3.58186722188702    3.55206596791484
H        14.78779267050205    2.79164605013621    2.56994575856326
H        14.79226192090399    0.90304422664075    0.98894152142106
H        12.67515398936670   -0.21174191686444    0.38667902890860
H        10.53932702686235    0.58924164645570    1.35986199676446
H         7.72926099838775   -1.98909745306996    3.67906847471751
H         9.12688990787199   -1.08618174063156    3.02747955222416
H         8.13859202366631   -2.08970828510849    1.93493717301978
H         6.44514718890185    6.29173195813754   -1.55635645673849
H         7.01392830273742    6.24419419771942    0.14636402815330
H         5.28363460139982    6.08895734840145   -0.20926971020333

