82
CSD_code = MUKGUW | q = 0 | S = 0 | Stoichiometry = C32H40N3O4RhS2 | MND = 8
Rh        2.13618193852252   11.06125251527741   19.06790328670681
S         2.19406079052412   13.78286094378347   20.44160457512639
S        -0.51088235072170   12.93693112945323   18.20230708339594
N         2.10767274327417   12.19633944548930   20.78533214103919
N         0.34405884346101   10.33147912344015   20.03897916925658
H        -0.36866200181078   11.04836777653828   19.77864073188765
H        -0.02106093850405    9.40516591355081   19.81738340079335
N         1.03217908716898   12.53169120857446   18.10131771504701
H         1.56044624693973   13.38793479541499   18.03974270116168
O         0.91269122885578   14.39688238400661   20.22280683707437
O         3.21060330920414   13.94687021871269   19.42305965135478
O        -1.18037969851280   12.42367316020354   19.39776054555168
O        -0.76095342795325   14.29393962023571   17.82431332887018
C         4.34654708703253   10.78486522668164   18.96710500241937
C         3.83026178668199   11.16843254932403   17.69017330460053
C         2.93221583426719   10.13774123830244   17.23829505532984
C         2.85727227654072    9.15866764482698   18.26602915738133
C         3.71357404844996    9.56590796465278   19.35710911494236
C         5.41958171126935   11.53103811324422   19.68562205972695
H         5.18288527724179   12.59332554575516   19.66822531137607
H         6.37339037469708   11.38066196812557   19.17649222058744
H         5.51653227260884   11.19816740878761   20.71540884128634
C         4.31858604494638   12.33574992036726   16.89767703425030
H         4.22346439802670   13.24225796117350   17.49333301561833
H         3.74492209781387   12.45400128009612   15.98350128332787
H         5.37050160008191   12.19655077379892   16.64317605865428
C         2.33335287606341   10.06487610059434   15.86764352093508
H         3.11752563837440    9.87386110946584   15.13323700562210
H         1.84774699527445   11.00570035461149   15.61714468256196
H         1.59938778425849    9.26617358345148   15.79942391981862
C         2.14517190630829    7.84329322944042   18.17915228472740
H         1.25686900406136    7.91281819183290   17.55508826915040
H         1.85252520991570    7.48424988904493   19.16353748938241
H         2.81244685345505    7.10137336709004   17.73681311917198
C         4.10209606556830    8.71065853488261   20.52566303245165
H         3.29522122504332    8.04026277738066   20.81298365988215
H         4.36252540229913    9.32257535677324   21.38587744489050
H         4.97022596956047    8.10184230049613   20.26454639283573
C         2.85522047901604   14.47575971650580   21.96339817150628
C         4.17149440538732   14.25275872851093   22.31248294889378
H         4.80767694372013   13.71419731072891   21.62960286488861
C         4.64826213953385   14.72200652980980   23.52419129164764
H         5.67816513339605   14.54614065319799   23.80046296385091
C         3.81273306785345   15.41087836281610   24.39437572113751
C         2.49440243460959   15.64492958555586   24.01561091539818
H         1.84020562490884   16.18955528484222   24.68075657810978
C         2.01628116372298   15.18078958803397   22.80479871358320
H         0.99967889947822   15.35272676281912   22.48883292314578
C         4.30699454803295   15.89608949835555   25.72292434658726
H         5.35514179238676   15.64723385943268   25.86552313930761
H         3.72749200267728   15.44078706772613   26.52478675961475
H         4.19099639551800   16.97597766266050   25.80078541153037
C         1.02545184963680   11.91658632424957   21.70644643599335
H         0.17507237327206   12.57999197825597   21.49157880425074
C         0.56864096366566   10.45887817403563   21.48416157434108
H         1.39642028712369    9.79622256718202   21.77450651900675
C         1.45932743128086   12.08466109123841   23.14104097415068
C         2.73323973748171   11.69831209170857   23.53348563736897
H         3.40908232215559   11.32010431761597   22.78154665433568
C         3.13052806008343   11.82560627071449   24.85128632847578
H         4.12797635973339   11.53294233545590   25.14592053556705
C         2.25002709073581   12.32708059693326   25.79471318263437
H         2.55875122673703   12.42579531884559   26.82522110037666
C         0.97294261509964   12.69993421885891   25.41292863036512
H         0.28153393121035   13.08846120028148   26.14618668634849
C         0.57880101670005   12.57996628428723   24.09221672227195
H        -0.41602728825964   12.87441614682087   23.79267965082704
C        -0.64592677385756   10.14548236752057   22.31974756783830
C        -0.52299659160591    9.34060792381655   23.44543426887165
H         0.44206484736986    8.92692253397168   23.70275244128960
C        -1.62074092009096    9.07723211955489   24.24558011887553
H        -1.51110785057308    8.45290268968413   25.12011492611217
C        -2.85517431603401    9.61478751909613   23.92517414551417
H        -3.71336514156386    9.40938814165932   24.54792563883785
C        -2.98340457845706   10.42253861847011   22.80727665486399
H        -3.94285758911431   10.85161102291550   22.55928609471918
C        -1.88656070246925   10.69228176854169   22.00760169188511
H        -1.99026338440544   11.34377577374942   21.15267251208609
C        -1.20652880875276   11.89422325000019   16.87038741922875
H        -0.82236669517972   10.89143019964345   17.00371679945976
H        -0.88401229836255   12.31068057791119   15.92711776226364
H        -2.28525771387840   11.91230534093305   16.94705032422450

