59
CSD_code = MUKHUX | q = 0 | S = 0 | Stoichiometry = C26H24N3O5V | MND = 6
V         4.24603405965083    5.13302774467229    9.14849525842003
O         5.67238370815618    4.74288600817316   10.23827114704687
O         5.41939500279852    5.59462656331102    7.92004147978863
O        -1.78475349540147    5.90351585894214   11.62478011980226
H        -0.94178947377472    6.41632148665441   11.57241493427422
O         3.89451545546348    3.68246439653208    8.79693397621593
O         2.91254846657908    5.94682557733767    8.52080462733716
N         3.21675736510558    5.06142842308501   10.89468597115885
N         4.70513116311831    7.21401141393643    9.95263314077299
N        -0.06855835752525    7.69508572326222   10.80248273246323
C         2.30863053487083    7.28758187762467   10.39245475004883
C         2.06435131328418    5.91149132195143   11.03981966887968
H         1.80893826643448    6.04400131946190   12.10202825962003
H         1.21298676362168    5.43592311776841   10.53251851713681
C         3.70280950157327    7.81996382603913   10.77954801126691
H         3.72195489653531    8.91968785316719   10.68460260695639
H         3.90256563956155    7.57200699906865   11.83244960736782
C         1.22937214309794    8.28812288930871   10.85241474409916
H         1.42289325202301    8.55528798756888   11.89794252885007
H         1.29552013704756    9.20047805499832   10.23623207851908
C         2.24973192579061    7.08198003929667    8.85795551734835
H         1.19095316560390    7.00731680880993    8.54376651733282
H         2.69725442872506    7.95909607992376    8.35154273010808
C         3.43918606515542    4.16659240588481   11.78482637228825
H         2.72532726927659    4.04053947819241   12.61014230313551
C         4.60379173133462    3.34740716526855   11.81760138143428
C         4.70732836685522    2.26071305147630   12.70020753356018
H         3.84309475053877    1.98676568754167   13.28943258357276
C         5.87204264662552    1.54224149298964   12.80077369187971
H         5.93784966852440    0.69501900932516   13.46564822323100
C         6.98186611296936    1.91842821743105   12.03839915490376
H         7.89928764569211    1.35388896038982   12.12361164362641
C         6.92448036924864    2.99307045676351   11.18748341582427
H         7.77834423907032    3.28555464042747   10.59320141869226
C         5.72704668562948    3.72767725506310   11.02262760799067
C         5.76174882383404    7.85416725044903    9.65190720127960
H         5.93534926540983    8.86230351472974   10.06417410749088
C         6.77256121252076    7.36653289796472    8.75800340540744
C         7.99541302154235    8.04446357129824    8.66640483244521
H         8.16576866393020    8.89383208446471    9.31475240635606
C         8.97571463134035    7.64302137426880    7.79043358379966
H         9.91620275225140    8.17037239385101    7.74430145820596
C         8.74293654883245    6.55050870102894    6.95473832763419
H         9.51033821330269    6.23484052555692    6.26274748555181
C         7.54785833711782    5.87655508588872    7.00176495921248
H         7.35294796551077    5.02997934298361    6.35846714422351
C         6.52621670057620    6.24479933425705    7.90925585104409
C        -0.95799948877726    8.11995569492385    9.99869902099557
H        -0.76929986359278    8.97059155146309    9.32898651491558
C        -2.27017079933968    7.52580625949181    9.91775824413113
C        -3.20751319604937    8.03397843990743    9.01190690060004
H        -2.92580326016393    8.87025731847841    8.38782730290708
C        -4.46575583857279    7.48597961059179    8.90876681540341
H        -5.17799925486865    7.88815075208364    8.20520034326294
C        -4.81400456930221    6.40887149885818    9.71689400016086
H        -5.79966117942531    5.97543838873996    9.63858870586430
C        -3.91077743750534    5.88878966021302   10.61839556209666
H        -4.16717912546942    5.05371269256954   11.25094943976907
C        -2.63106353636210    6.43316286429398   10.73570213228674

