34
CSD_code = MUKZIC | q = 0 | S = 0 | Stoichiometry = C11H17Cl2N3Zn | MND = 5
Zn       -0.23078161327933    0.59964745737965    3.83086306013149
Cl       -1.75285137362964    1.64781033319041    5.13196243671373
Cl        1.97816361519177    0.70815767914254    3.60005258215200
N        -0.73583214376970    1.93881291039243    2.13273926309820
N        -1.25767870994932   -0.86779973736443    2.60704367894636
N        -0.23375243725665   -1.20911579207309    5.18393402273730
H        -0.42425629617079   -0.92006539433608    6.13796220369208
H         0.67607080620953   -1.66239252466159    5.16775632778751
C        -0.27488104660966    3.16732395592263    2.31450347579322
H         0.48390418912968    3.27806817596208    3.07705870649081
C        -0.71844559769309    4.25390316284464    1.58075111698010
H        -0.31597205525139    5.23685880729374    1.76367038071206
C        -1.69220605754520    4.03788831236224    0.62183767685364
H        -2.07942046153146    4.85528302577566    0.03161625938275
C        -2.16462021068078    2.75071904992504    0.42344590067797
H        -2.91798047538762    2.56821341881633   -0.32407076833096
C        -1.65963857408842    1.71181122391639    1.19709854417369
C        -2.10521112302626    0.27916220840131    1.03751215360233
C        -2.59975086350786   -0.31175117019783    2.37660155960606
H        -2.92507256190112    0.39149306738948    3.14148770244578
H        -3.35565147821989   -1.09018253351423    2.23056699650140
C        -0.91979863344041   -0.69825874090252    1.18840416511281
H        -1.06389507447549   -1.61626935618374    0.61012956871050
H         0.08090255935802   -0.30264911996726    1.01987975636859
C        -3.01116509793712    0.03387295012422   -0.15774192837084
H        -3.95099137401742    0.56921951910526   -0.04426760285257
H        -3.23799580703373   -1.02715980152545   -0.23779901892796
H        -2.52705254275863    0.34729188202941   -1.08003475409878
C        -1.15439135166316   -2.19617704906949    3.17240461181503
H        -0.16880761141200   -2.59201199301672    2.91148473461988
H        -1.92720873511562   -2.86824126153176    2.77105126871671
C        -1.27483196273285   -2.10259947256153    4.69303040366601
H        -2.24112499436331   -1.66095818856863    4.94682761451718
H        -1.21567490544103   -3.10700500449844    5.13293790057544

