89
CSD_code = MULGIL | q = 1 | S = 0 | Stoichiometry = C45H35BrCuN4OP2(1+) | MND = 4
Cu        8.16037503222534    1.09080184851944   10.15098910474101
Br       -1.39638476267487   -1.25435111574899    3.23903819608096
P        10.40522135904395    0.78712772178165    9.95667059224741
P         8.43718199353395    2.58250566079446   11.84712005688842
N         6.98534231120852   -0.52380958313813   10.28896048986519
N         6.95725835152247    1.55757734616928    8.60000840040225
N         3.01011054738506   -2.20025490610122    7.98289217558828
N         2.95111490452763   -0.47435683596601    6.59244504173915
H         2.64491766130615    0.13004300145611    5.84903235790856
C         5.98906986170153    0.63793127118751    8.46595541150681
C         4.02646418656607   -0.27522104435286    7.41033306661388
C         6.00889482469312   -0.48501237791553    9.36700906977766
O         1.21422606428452   -4.11027940830543    7.84776442999917
H         2.00134359193047   -3.61863035703027    8.17772733793498
C         4.04302302410037   -1.37349584809303    8.27603500451977
C         2.36237665876396   -1.64932204423877    6.97045107366882
C        11.34224388939227    1.08721798736871    8.42852261923253
C         0.55637412766813   -1.58596438330517    5.27795427608598
H         0.93005324374605   -0.65185620523023    4.88784859761021
C         7.70916827350207    4.87948974119380   13.33521312264873
H         8.35003516220379    4.51604668829589   14.12572316358439
C         7.05591312147649   -1.54292426915237   11.11936775352722
H         7.87168072511685   -1.52433555884872   11.82909428290024
C        11.12126080713494   -0.72831018395476   10.65550334963277
C         5.04011586793497   -1.51042916942210    9.28106011094711
C        12.73270463441118    1.16718637527481    8.40292586958178
H        13.30033897848401    1.02222158926193    9.31218660689296
C        10.77243451097683   -1.04298577480888   11.96885455742732
H        10.14993187211380   -0.36020743981413   12.53577359809278
C         4.98898973622099    0.76099261972575    7.46700795637605
C         5.12227609294311   -2.58235202964456   10.17791652195663
H         4.38815398646332   -3.37083930185991   10.12525220329077
C         6.98631310258282    2.60031818278901    7.79485730239393
H         7.79487359752001    3.30227613642344    7.94789289116444
C        11.87179620826261   -1.62933989624510    9.90847277730163
H        12.11560795083641   -1.40870012039313    8.87901550397219
C         7.56119083305547    4.14626983530004   12.16311075277160
C         8.74357384226098    1.89942774794119   13.50507547818514
C         1.19044945306148   -2.22063255468327    6.35115411483876
C         7.83069801536084    0.93369207530859   13.92594230819709
H         7.00967153655188    0.67184071137452   13.26937218189223
C         6.14428603394000   -2.59811878212021   11.10116803599522
H         6.24642786874803   -3.40765436001836   11.80535957719108
C         0.66980523973865   -3.44335850387994    6.83178398611034
C        -0.56006313812138   -2.14734763635988    4.69956827288383
C         5.03505157253782    1.88017935835374    6.62305326051706
H         4.29197737937552    2.01176927312914    5.85106010157135
C         6.71177478028733    4.60243498114679   11.15924757904970
H         6.58914458633767    4.00609831597590   10.26342990009232
C         9.80911599080804    2.24194594334924   14.33215666210912
H        10.52903853673204    2.98771069756162   14.02694304027517
C        10.61700215610199    1.25251530941270    7.25306879620956
H         9.53706188290533    1.17851376488038    7.28924107863220
C        11.08329899315818    2.07984203721546   11.11081535712378
H        11.29758751885200    1.59704824435143   12.06829671820546
H        12.02042917153175    2.46633016143606   10.69870735652283
C        11.99361143282026   -3.09785132861850   11.80609196198574
H        12.34330719451939   -4.01460549843858   12.25528409250790
C        10.08660640821635    3.22063219103856   11.30691305467895
H         9.90692683926711    3.73489723516901   10.35494559583745
H        10.46376399866364    3.96384701073418   12.01700191452122
C         6.04159434277895    2.80486189449888    6.79075124960705
H         6.10831123319727    3.67504091616120    6.15833046746569
C         9.95044133404468    1.62453709898149   15.56274880440458
H        10.77765330536772    1.89289218009753   16.20275560414283
C         7.02363342106453    6.07121086127994   13.48640624106595
H         7.13790571771537    6.64300845329529   14.39493789141553
C        13.38259176919638    1.41507755452990    7.20859866804111
H        14.46037991756390    1.47344845227197    7.18622879053458
C        11.21569846189288   -2.21794928337963   12.54341847267609
H        10.95323430320805   -2.45035633860687   13.56501581204642
C         6.03252230104838    5.79618977331042   11.31506638205259
H         5.37584558071651    6.15178827442266   10.53505591005692
C         9.03800034844460    0.66728667994749   15.97617193598328
H         9.15706590827451    0.19011357873046   16.93676212659255
C         7.97418897663493    0.32282443806843   15.15731935654191
H         7.26161000572296   -0.42193639992765   15.47884808970148
C        12.31283696044182   -2.80512728252792   10.49061822605515
H        12.90758843683730   -3.49648560784321    9.91293224105293
C        12.65534535838911    1.58601107644572    6.03989782281740
H        13.16961765720530    1.78064361755097    5.11127622325071
C        11.27295328168454    1.50327265381369    6.06098360990879
H        10.70904441844785    1.63262450061801    5.14925120224699
C        -1.07946156823414   -3.34997826320701    5.16625669705431
H        -1.95455911602385   -3.77777852527169    4.70333757622943
C        -0.46573941470953   -3.98479755484600    6.22111296747336
H        -0.84673791380599   -4.91798460524336    6.60303986951092
C         6.19086845803776    6.53171984755884   12.47882733602520
H         5.65882688905348    7.46225746300597   12.60418437401774

