37
CSD_code = MULLIO | q = 1 | S = 0 | Stoichiometry = C18H12N2O2RhS2(1+) | MND = 4
C         2.07551520042218    3.77697071209289    0.99209931900918
C         2.64882678422294    5.32417255332475    3.07680109717003
C         0.85628756466855    0.82126221349580    2.35098625716012
C        -0.36358846738662    1.36252257687164    1.94819842609830
H        -0.46744431767577    2.43903674949280    1.87030434491114
C        -1.39939564869850    0.49984965088788    1.66524096478570
H        -2.35258059068979    0.89316184883607    1.34871093935356
C        -1.23484696760248   -0.88234010725484    1.77913402366456
H        -2.06166984383431   -1.53359415120702    1.54449468648546
C        -0.03613141129071   -1.43447502544184    2.18610005478719
H         0.08818828987842   -2.50128992244284    2.27725382518405
C         1.00935040053528   -0.57082605323769    2.47475441264528
C         2.97688736281246    0.75957020916267    3.02861422755962
C         4.29000521425184    1.32582073296178    3.45818876741312
H         4.44961316293337    2.28271321770915    2.92563692188092
H         5.09727953074439    0.63995456336915    3.19830714546322
C         4.32990657486340    1.56585362720633    4.97633414806780
H         4.30884547005815    0.60461159037407    5.49853229827130
H         5.28180294333995    2.04297672297045    5.23020447202922
C         3.21690025583864    2.40387397759470    5.51657687825259
C         1.61322571094314    3.48197001079892    7.01955495031560
C         0.76344616352850    4.02495069852352    7.97134472683920
H         0.91479862354010    3.82727383286570    9.02005224416134
C        -0.27807185845445    4.81647945643029    7.53046762779414
H        -0.95169476092939    5.25268731482682    8.25061443980392
C        -0.48278388471324    5.05111115324280    6.16966930918751
H        -1.31897017154920    5.65745485792539    5.85899023422987
C         0.36247181575757    4.51716356455475    5.22158053477201
H         0.20021515085543    4.67599834776349    4.15625344498737
C         1.43891931839088    3.73900000890686    5.65026781999848
O         1.94103024578629    3.91302547462862   -0.12579612711144
O         2.91517519335093    6.41250749726664    3.25344870518859
N         1.98758001767752    1.52801112634814    2.66543721903526
N         2.37772891612883    3.13547951854452    4.83912453998821
S         2.97472133513894    2.41975467118495    7.23752052865511
S         2.62856392483207   -0.93267537249324    3.01316036181005
Rh        2.26549275232580    3.52298215191503    2.82073623015239

