50
CSD_code = MULLAG | q = 1 | S = 0 | Stoichiometry = C23H22N2RhS2(1+) | MND = 6
C         7.46685992009646    7.87332368461314   13.89710523236530
C         8.50610389988001    7.06605596296347   14.33233865294174
C         9.59598966639734    7.49062220729129   15.28603222375006
H        10.38840391077239    6.73791034639282   15.26010586075933
H         9.19456733067159    7.49062759016509   16.30351385363918
C        10.19393965758716    8.87137669926989   14.95630997272175
H        11.22539385976734    8.89847314771133   15.30949189103388
H         9.65404188170516    9.65804615835209   15.48165726814506
C        10.17409710679703    9.16870346744611   13.47381680388370
C         9.14770147712441    9.84453748057509   12.83027195883322
C         7.88047351616654   10.33372410823362   13.48594144677039
H         8.09927935394200   11.24164048645634   14.05553448144354
H         7.17623504945986   10.61210209415391   12.69831683795224
C         7.22527735186861    9.28017335772605   14.39644032219078
H         6.15110268962478    9.46526086809426   14.42760499514999
H         7.59634224811328    9.36642544548403   15.41691787497836
H         6.57716570630114    7.37008125388732   13.52191646442235
H         8.35550500580657    5.98547672840921   14.30098868247353
H        11.15853469439742    9.19136936732095   13.00220023691838
H         9.41282357771874   10.40054889488617   11.93203656688944
C        11.06467281190514    6.93619625282361   10.61885437841420
C        11.26927350865058    8.44092941494347    8.72113709969013
C        10.21477027320342    8.72426630566686    9.61015993853920
C         9.32177309264808    9.75344333833280    9.31378472679543
H         8.47013723397305    9.92371308991788    9.95585883351901
C         9.53259790950982   10.50428129296558    8.17821814621166
H         8.84998121253958   11.30268885657609    7.93374273040819
C        10.61072239043764   10.24484358603435    7.33131344950866
H        10.75438039912740   10.85401184513174    6.45327658018622
C        11.48296269326811    9.20548429546238    7.58493830993346
H        12.29995619156819    8.98256168429075    6.91817291534012
C         9.70593756973014    5.16063108598824   11.47209656499726
C         7.75484390457749    3.79351947405016   10.98856453825545
C         7.48848540758877    5.13126003489103   11.33865102691351
C         6.17606570106594    5.60042215802070   11.31760124760893
H         5.97868546728849    6.64156105268592   11.52456093671603
C         5.16522812445493    4.72167104418665   10.99593516368036
H         4.14450290943361    5.06921154578215   10.97353338726250
C         5.43867383004883    3.38799623735736   10.69009193030458
H         4.62626480484168    2.72177904217426   10.44752795012777
C         6.73388592488017    2.91100003743828   10.67283872992464
H         6.95230767917492    1.88773626719680   10.41397029801241
C        11.06943155169331    5.78036051324350   11.57495346494378
N        10.15856526248239    7.87085729104796   10.68250645884885
N         8.61519575942968    5.85731634876114   11.62705097487160
Rh        8.98868926113037    7.75607082066629   12.36531897106501
S        12.13668672895660    7.03076567627505    9.26528547189533
S         9.47470406637471    3.51458664907018   10.99511627519138
H        11.24753076111384    6.13657852352575   12.59996296039132
H        11.84214966454962    5.05967688614174   11.30923491330712

