53
CSD_code = MULLEK | q = 1 | S = 0 | Stoichiometry = C24H24N2RhS2(1+) | MND = 6
C         4.08961868097566    4.68999137758609    1.48214068238401
C         5.18652341893184    4.77159269330530    2.33815062126105
H         5.46492520230906    3.91405254536672    2.93347241161359
C         5.87598465842934    5.96162166322223    2.41578309563276
H         6.72704666051743    6.04276777516265    3.07332416128313
C         5.49051943416233    7.06850631852751    1.65886527526674
H         6.05434505773326    7.98471957114833    1.73390459822989
C         4.39178556710093    7.01611449254783    0.82469745536567
H         4.08122279608866    7.87462766867513    0.25146743544870
C         3.69021563287996    5.82336476069410    0.74924005521235
C         2.28781884322934    3.84886138620461    0.48681504650481
C         1.21643856839421    2.84859808565765    0.20690720588016
H         1.65880756830347    1.84387480612101    0.26898182666286
H         0.81339513608447    2.99905308491457   -0.79504196073523
C         0.05720074364923    2.96706930478899    1.21746183239905
H        -0.56090098287762    3.83142787851440    0.96260398243306
H        -0.57880551264435    2.08113685238091    1.12562592286149
C         0.47924383084490    3.12625005415316    2.64277560811438
C         0.58470949689664    3.79560887526510    4.99605699920026
C         0.53889766099757    4.24994483510904    6.30492587189978
H        -0.33898798611587    4.74699288612685    6.68462101366970
C         1.65368102766621    4.05646012722169    7.09600365508127
H         1.64291152283623    4.40133780050576    8.11764712455183
C         2.80056404666582    3.44218598211410    6.59142776418255
H         3.66445831965234    3.33424512630161    7.22806932468972
C         2.84608345959621    2.97906096049220    5.29478641674003
H         3.73730551906033    2.52025868847893    4.88011542790320
C         1.71585430531773    3.13189651084389    4.49247484482191
C         5.15502453093894    1.12774367332325    1.82972777147677
C         4.32917025741146    0.71337831661899    0.79592791056980
C         3.86436176982952   -0.71416285888099    0.61162310502008
H         4.62995371803657   -1.38694855926704    0.99660021821576
H         3.76272436787002   -0.91972527312594   -0.45454641765914
C         2.51187079594050   -0.98561577065822    1.29802340383564
H         1.70198639840106   -0.79054757386191    0.59064708001538
H         2.44005587847289   -2.04142952833266    1.57543719757377
C         2.28385689523502   -0.14640688171246    2.53217903186363
C         3.20835995942226    0.04359727916424    3.54798949227937
C         4.56424898321496   -0.62665485925267    3.58334267201982
H         4.49790925337047   -1.59050002445986    3.07969102575323
H         4.83527931038267   -0.82413954132537    4.62105561001729
C         5.66225408763534    0.24477724553174    2.94435652056602
H         6.10489076979973    0.88338079309926    3.71274085501401
H         6.46557978520315   -0.38878693952202    2.55698335683011
N         3.28743987978406    3.59671766228656    1.28279153446964
N         1.59627441425135    2.73771984071370    3.18069322569786
Rh        3.16664522114454    1.78220212732299    2.26058459260256
S         2.25080609222592    5.45573347885539   -0.16004917739189
S        -0.60140996951806    3.95404490271599    3.73248322178753
H         5.78250924689922    2.00027742340356    1.64348072828781
H         4.33704433856115    1.31109032107273   -0.11677777704098
H         1.22859340471731   -0.01113829484665    2.77790257125682
H         2.81470793408986    0.32297092970968    4.52440854837672

