65
CSD_code = MULQIU | q = 0 | S = 0 | Stoichiometry = C28H20N10O2S4Zn | MND = 4
Zn        6.29149511677102    3.00383027750740    7.14267522607507
S         1.54713470362609    7.77589094069540   14.20076472445212
S        10.16123118692591    1.43776542617501    8.99985170871764
O         2.96394052794989    6.61357354089647   12.27103658567587
N         5.60561730047125    4.31262820078984    8.60033482877388
N         5.00295032177780    7.32561648183264   12.67283407421621
N         4.20164857234930    7.86511550019980   13.59268079820576
N         0.02073165753746    8.74701500552361   16.06069709604073
N         7.79673784601803    2.24663948625121    7.85224428395227
C         6.46554173144004    4.99595486209521    9.35454988327783
H         7.50661288782868    4.91517016794563    9.07700197555712
C         6.07681039525849    5.75852051981133   10.43637740348906
H         6.79132975866276    6.30158244716517   11.03237938427456
C         4.71944175583221    5.81075500475280   10.76301339258352
C         3.82015303897115    5.09268037212445    9.97340379482655
H         2.76466549379889    5.10400819382559   10.19391681449134
C         4.31189046457990    4.36410959077470    8.90830519532439
H         3.65074111448106    3.79194681466969    8.27282260044952
C         4.27373623682353    6.58543774059434   11.89220103638145
C         2.99259733444394    7.43028968316030   13.34162634397936
C         2.30523572024478    8.87605410933912   15.44750256824243
H         3.09532426587319    8.32679999690111   15.95990110184919
H         2.75026046724914    9.72934545310204   14.93531486251246
C         1.19600200139428    9.27385453556786   16.36573860989235
C         1.37886674433263   10.12449544104882   17.45025820385435
H         2.35252769772076   10.53570828116159   17.66610998909205
C         0.27867565520303   10.42219844071417   18.23648563347790
H         0.37899341905649   11.07871540021464   19.08818692485397
C        -0.95147585520567    9.86610572349690   17.91579635959129
H        -1.82808076743668   10.07585647922416   18.50761845512872
C        -1.02722585412566    9.03159674460057   16.81229072043881
H        -1.95739186867955    8.56924358483347   16.51202273399760
C         8.80316443717738    1.88146538251912    8.35259352068455
S        11.04019472509519    7.76720349206292    0.07836807706339
S         2.41571188575858    1.41706766940466    5.31525771208252
O         9.62275864191654    6.60051897430361    2.00535234698841
N         6.97817691687401    4.29936841326615    5.67448939453338
N         7.58446144244233    7.31596648324231    1.60593055139019
N         8.38619299224042    7.85725475381056    0.68754503662663
N        12.56610895087336    8.74460903192426   -1.78025647195257
N         4.78532805022180    2.24043856048791    6.44182820725074
C         6.11882867810112    4.98183831512361    4.91887900016659
H         5.07751657754205    4.90102891116134    5.19550909341454
C         6.50859790131484    5.74394726280502    3.83711577675958
H         5.79470675189429    6.28695497800570    3.24031658942628
C         7.86634262676020    5.79646066585936    3.51203005762443
C         8.76482582326387    5.07805259626647    4.30223854960538
H         9.82048491151437    5.08906428572910    4.08252703443825
C         8.27209952630537    4.35012350696377    5.36734716689187
H         8.93255495307664    3.77802425799661    6.00361074665452
C         8.31298763141149    6.57273027983665    2.38429997395539
C         9.59480084144800    7.42030164833413    0.93707545520142
C        10.28257603538836    8.87399883442050   -1.16276756357943
H         9.49172302085359    8.32784955587382   -1.67731923038097
H         9.83851992845493    9.72516124408097   -0.64622159051372
C        11.39131934993119    9.27554282990417   -2.07995109176197
C        11.20820283703803   10.13361607577546   -3.15857156437160
H        10.23489002170103   10.54787400595902   -3.37013995008093
C        12.30763750265055   10.43465031498973   -3.94456476586606
H        12.20711338363217   11.09702588579811   -4.79169210270607
C        13.53729855178312    9.87425456849800   -3.62954754568414
H        14.41336492008539   10.08653949516293   -4.22126584812589
C        13.61330978297922    9.03225619277377   -2.53176292073298
H        14.54319936907655    8.56645872005538   -2.23598127946233
C         3.77688196004667    1.86804836060188    5.95088432079257

