41
CSD_code = MULRER | q = 0 | S = 0 | Stoichiometry = C14H17Cl2N3O3SZn | MND = 4
Zn        0.55138355003680    2.78616703729169    6.57791520011336
S        -2.10894164552213   -0.66472905478725    7.92477682069868
Cl        0.64151319830929    6.03496780169662    0.13461084534545
Cl        2.97512621189526    1.93100687998184    2.69684199500105
N        -0.91687591873208    4.10313825136149    5.96777776114641
N        -4.03277723346823    1.35542775924586    6.90044768006236
H        -3.27313273921049    0.64670966555442    7.34767518079078
H        -4.65725763616305    1.63671727184886    7.66002234762021
N        -0.15704345323305    1.03384847915728    6.93820404079750
O         1.12853920908632    2.56952937576726    4.79945487973592
O         2.12884588397421    3.31009447378842    7.57754753860980
O         0.23734313922877    3.35687017824724    8.65125212398580
C         0.99869510677063    3.36494268286030    3.82208028565567
C         1.82125549018789    3.20354877991555    2.65697643496600
C         1.71958402995717    4.00239297946458    1.55181727153478
H         2.36185413329932    3.84241546521787    0.70045677282692
C         0.76992626104968    5.03179906630115    1.53873660035413
C        -0.04720298880726    5.24243753034898    2.61400508344603
H        -0.77344585140530    6.04154096223609    2.59257089657915
C         0.04436095444164    4.42953093156385    3.76329496419167
C        -0.84281759471244    4.70994152995275    4.83483776046446
H        -1.54337636228761    5.53461782707916    4.64459561829442
C        -1.91575749701502    4.54773386172263    6.90708929128242
H        -2.59636977322891    5.27428528108823    6.43782254069072
H        -1.40537033186464    5.02763097773608    7.74613856797015
C        -2.70594199653934    3.36537944971084    7.47456146215040
H        -2.00727561642680    2.74814632194443    8.03548462930014
H        -3.46494208364297    3.75231155182539    8.15759541029972
C        -3.35270709043551    2.55090179646522    6.36221629143785
H        -4.08258772690505    3.15913510777884    5.81805956180239
H        -2.58110523836307    2.21864822426878    5.66520242603892
C        -4.77290825641601    0.59695609063920    5.88631969753328
H        -5.55372931407141    1.20770583522696    5.43464321053166
H        -5.22023904694552   -0.28445994830526    6.34021253038264
H        -4.08090065873037    0.27462599602879    5.11098339388508
C         2.22343139468716    3.85782280010786    9.89683979737284
H         2.96730438472365    4.61590665054078    9.66955724544609
H         2.73824337173255    2.97302108017505   10.26434534480875
H         1.52925719011846    4.21276731535790   10.65255294269123
C         1.47626630934731    3.48571691603325    8.63565438571156
C        -0.94292376472694    0.29474881755720    7.37342316845244

