67
CSD_code = MULTIX | q = 0 | S = 0 | Stoichiometry = C29H30CuIN6 | MND = 3
C        11.68242816514655    4.84753154427088    4.77007504578547
H        12.13164249021180    4.34302564275568    5.62265373571544
H        12.31035580753018    5.69092821626959    4.48260204040016
H        11.64039471451372    4.15488689485705    3.93142628794699
C        10.31344203687482    5.30336186784309    5.12107536778808
C         9.32182774261107    5.82886089700888    4.27956181728700
H         9.39723382062907    6.00133093003081    3.22582494188346
C         8.22743872857233    6.06495451561360    5.08372501785364
C         6.88311164486541    6.58848334923519    4.73190090609166
H         6.64369544004277    7.48814365411168    5.30010894299597
H         6.11268871357769    5.84338241126930    4.93114854683621
H         6.86114696437346    6.83373429247029    3.67362318826514
C         7.75192620230340    5.64263305465717    7.51681195075079
H         6.86386152048016    6.25900132360669    7.31435287237568
H         7.42868293134520    4.60316414322254    7.66239589654292
C         8.62565249515748    7.41446950199707    8.94783088905552
C         8.63031852096435    8.35002783894191    7.93316399644607
H         8.51517440938127    8.05297149193447    6.90382815944773
C         8.78520723308328    9.71115072318251    8.21633730984784
H         8.77526187661691   10.41244708463057    7.39419914131441
C         8.92408373759658   10.15866630267189    9.50019938074050
H         9.01226986379221   11.21316099255071    9.71376117830155
C         8.96469745790593    9.23770743339123   10.56655856443223
C         8.84348080566977    7.85543528829108   10.28510892455244
C         8.96711752491014    6.92544395484144   11.34086884692509
C         9.12515061776966    7.35459522299494   12.63644907311849
H         9.18670814445025    6.63067148534451   13.43515366733380
C         9.19756042913361    8.72369944801184   12.91587440849445
H         9.31467279980923    9.04625292719017   13.94027533001641
C         9.13892577094976    9.64376169076379   11.90555051989591
H         9.22772921122084   10.69903922555984   12.11755207430379
C         8.16382673203003    5.21434268258968    9.88434631551627
H         8.40424884486577    4.18398634520457    9.59977731804733
C        10.25084390939642    4.90103007197070   11.20920821029174
H        10.20121142011370    3.89550652996681   10.78135035215851
H        10.46715409473251    4.82756099385189   12.27770555364178
C        12.45391618177912    6.50271436883399   12.66604745241022
H        12.61883582877229    5.51366476754227   13.09278241265179
H        11.58621851851325    6.95164544226280   13.14761227206536
H        13.32287079233365    7.12009410467357   12.87668645141696
C        12.26229523587784    6.41956284185050   11.19680706294375
C        12.96005470495564    7.05154471109375   10.18968505098164
H        13.76662861831859    7.74659613549229   10.30102276078576
C        12.39925462332725    6.59779432349309    8.98969264592229
C        12.76660717363060    6.96987294236263    7.60010631383815
H        11.91019259831959    6.83165534256348    6.94405858359400
H        13.58380636274612    6.34339966937574    7.24062972121692
H        13.08903526227642    8.00810895083289    7.56361109473244
C         6.71087598231774    5.24734255173031   10.33151411495733
C         5.89534120703236    6.35892960355713   10.17347632674600
H         6.26933882318267    7.25257593208990    9.69534879233680
C         4.58945939530683    6.33803037534169   10.63382881219590
H         3.96530970014532    7.21015761067230   10.50473547405001
C         4.08715338322820    5.21026527797470   11.25760772130956
H         3.06848717594956    5.19781389415003   11.61562896616269
C         4.89641890325341    4.09796386422013   11.41946942787958
H         4.51117961047704    3.21294835344911   11.90300804597704
C         6.19923780371794    4.11665276480477   10.95813829127259
H         6.82956328754514    3.24832160096115   11.08035085491242
Cu       10.59753291291747    4.45167933613681    7.99462031003334
I        10.17890386194591    2.04530562446825    8.52264554507232
N         9.84383822938855    5.23918883452796    6.35781364456120
N         8.58885673816559    5.70290994715780    6.33991159426592
N         8.42837736909962    6.06029846803926    8.71684345969172
N         8.97736615749391    5.55141870941857   11.02454632093813
N        11.34479383849566    5.62656646580773   10.59482785861365
N        11.42707689684020    5.73772721202961    9.25865684405974

