68
CSD_code = MULVEV | q = 1 | S = 0 | Stoichiometry = C27H39AuP(1+) | MND = 3
Au        2.91559246100925   13.10136376489277    3.55801750410950
P         4.04898395228630   13.71462701397557    1.65054480677427
C         1.81168239119053   12.49831759427841    5.36108912825524
H         1.02415788554898   11.87388086983246    4.96620847314979
H         2.55261411583100   11.98709202769079    5.95704880072203
C         1.60564179624484   13.83764559266356    5.53275641068913
C         2.45167347202005   14.66868547473462    6.44356950461554
H         2.72154621076805   15.61168484745904    5.96331049234103
H         3.36556467941711   14.14405920353095    6.72539119896928
C         1.61733681764123   14.98072361614311    7.69792869860852
H         1.38771454263730   14.04735219882483    8.21530822034390
H         2.20490398841982   15.60493528652384    8.37131174881991
C         0.32248659933318   15.68628497980962    7.31269374884253
H         0.55194843667165   16.65032731406836    6.85342251340836
H        -0.27059995255094   15.87681600140825    8.20755703001227
C        -0.48130564648528   14.83256450251892    6.33893136249525
H        -1.39300194237544   15.35109028925671    6.04169095542172
H        -0.76627829022321   13.89511115959084    6.82006283604044
C         0.35331724629031   14.52117856604811    5.08466666820448
H        -0.21946766291581   13.89310269119195    4.40095081914242
H         0.58744002524530   15.46347583418822    4.58432578145989
C         5.59404363618776   14.69127529279008    2.14777061549857
C         6.15238699115945   15.68398473094844    1.13174766814817
H         7.04320817909647   16.14645376853272    1.55472526237131
H         5.44092240085810   16.47767449523898    0.91761617599698
H         6.45064386130878   15.20890339112469    0.20250456938084
C         6.63600515479638   13.62331059674339    2.48874215931040
H         7.48248719761485   14.07869682141055    2.99846417135178
H         7.00469176113308   13.12487053571380    1.59484814054693
H         6.20452415874154   12.87107744450428    3.15188060184109
C         5.23860672660078   15.45855730507650    3.42558832864587
H         6.10888061275508   16.01375309764680    3.76990777553065
H         4.93989871727984   14.77502625439835    4.22081976288513
H         4.43313968006573   16.16916929624384    3.25638363352135
C         2.83504747244753   14.66393700206435    0.56201913377733
C         3.34140705745561   15.04697344969503   -0.82535961832407
H         2.55735091062306   15.60084409762625   -1.33935440671738
H         3.56499721449593   14.16449821326169   -1.41982671517892
H         4.22015438293050   15.68286267941864   -0.78419852275048
C         2.38261698629819   15.90681084752129    1.32614162013387
H         1.51726507600447   16.34625401623884    0.83372092836928
H         3.16493959272689   16.66137214303861    1.35773948781279
H         2.09644631065724   15.64911971653913    2.34738529156133
C         1.65463983054015   13.70049199342614    0.40317897172932
H         0.87008775504366   14.16988767705006   -0.18651129222425
H         1.23558572937112   13.42554989852728    1.37268991496220
H         1.96542770311978   12.79148940286372   -0.11011791330719
C         4.60511978771789   12.35202048409026    0.58131540526587
C         4.21280585368236   11.03156529730739    0.82755708609428
C         4.59332560826117   10.03433813938577   -0.06832064672930
H         4.27993224054053    9.01929561706398    0.12664226859398
C         5.36394300901598   10.31992056067850   -1.17839755929861
H         5.64739631271472    9.53074430158792   -1.85690702085685
C         5.77690757406273   11.62230113236112   -1.40736193159000
H         6.39058457572988   11.85820761557242   -2.26301158650882
C         5.39513610016110   12.62463088019139   -0.53823277465737
H         5.71955803953358   13.63393847912684   -0.73145783524419
C         3.44244020072363   10.57637001908423    2.00724252612848
C         4.10684477068097   10.30749635587031    3.20440444014335
H         5.16283198537914   10.52440417926702    3.28304817065642
C         3.43635758283463    9.70897234959912    4.25736401558315
H         3.96781438121573    9.47827923548857    5.16851309126691
C         2.09593462375588    9.38227055819390    4.13233950704552
H         1.57913653119937    8.89937949371214    4.94758866218404
C         1.42634402151885    9.65796118149230    2.95143086208959
H         0.38477359592780    9.39414332060820    2.84566543358967
C         2.09599700496367   10.24277545309532    1.89076147684213
H         1.58185997550016   10.42172234988829    0.95782396265768

