53
CSD_code = MULWOF | q = 0 | S = 0 | Stoichiometry = C24H24Cl2P2Ti | MND = 12
Ti       -3.73563600018422    1.70347571707540   11.06752821701381
Cl       -5.17899713719843    0.04325124223371   10.76394936845763
Cl       -5.12839372500079    2.63390817709689   12.57140607643409
P        -2.30546853030978    2.61532707234165    8.96196975211910
C        -3.98201025416367    2.00243879656655    8.82995731533810
C        -4.91758379906383    2.87572925247423    9.44915131406457
C        -4.28032998774303    4.01719823530622   10.01998681261480
C        -2.89661650707433    3.98734355006600    9.88510615100646
H        -2.25520909207600    4.80460906458281   10.18604406752130
C        -5.02327991946814    5.18218426094036   10.59334672541914
H        -4.32584220485797    5.95449581786928   10.91109933210915
H        -5.62553003062196    4.88108059530683   11.45147981273418
H        -5.69393174920079    5.59819699017588    9.84038551964471
C        -6.41256437722411    2.74259369823058    9.40270952773839
H        -6.82590384615389    3.39993539263626    8.63375646654906
H        -6.84442433417039    3.03482013072804   10.36205847731737
H        -6.70987163271275    1.71663975930401    9.18779331628183
C        -4.26220194485949    0.84651811091230    7.97053314712938
C        -5.31945796569404    0.83644422565766    7.06129786361936
H        -5.95687306994824    1.70225362509703    6.96861110747416
C        -5.53775723705847   -0.26373364290558    6.25186745600997
H        -6.36480223500403   -0.25726932189090    5.55695943642230
C        -4.70323383519112   -1.36516196417089    6.32443414009817
H        -4.88203619297476   -2.22483405372311    5.69626529186878
C        -3.62758108341190   -1.35275782561965    7.19857757918255
H        -2.96145661205262   -2.20153371143658    7.24875437141946
C        -3.40555461551645   -0.25646528284662    8.00677922333567
H        -2.55831664926359   -0.24911409100445    8.68938263306848
P        -1.26361851500325    0.89563193871527   10.96680699762513
C        -1.72389039083173    2.05109870732786   12.25949865536527
C        -2.52849828057868    1.44718370627777   13.24895166503734
C        -2.95090460372386    0.14781960470252   12.87210321090850
C        -2.38392879092593   -0.27246249284955   11.66293562972482
H        -2.54583808304575   -1.26068773057213   11.24489367667442
C        -3.86566720195643   -0.69424530161972   13.70493737655993
H        -4.17155554103485   -1.58350038755295   13.15654447460269
H        -4.75723670989462   -0.12525736470273   13.97742626812307
H        -3.36580823920673   -1.00495356642699   14.62447106238616
C        -2.76760544442111    1.99668749547760   14.62227071800634
H        -2.07129652886281    2.80442752624762   14.83929849194415
H        -2.62413602752312    1.20161883986932   15.35444180256449
H        -3.78573188884614    2.37257889201626   14.73496562417803
C        -1.15083389026471    3.39282166084672   12.34070387275862
C         0.13790764406275    3.63548280020201   11.86516005145928
H         0.71025963214611    2.80960794272858   11.46031720196167
C         0.67965112885221    4.90525932060741   11.91566206120671
H         1.67906266792907    5.07816984599098   11.54495093793298
C        -0.05707099918529    5.95504714096611   12.44053009146220
H         0.36705772536660    6.94714462491359   12.48194696600475
C        -1.34557280963325    5.73026578121586   12.89976755128228
H        -1.92917136382017    6.55052642577013   13.29229790509677
C        -1.89595366316727    4.46338976831218   12.84734237982717
H        -2.92135525824955    4.30487100067693   13.15938482529702

