63
CSD_code = MULYUN | q = 0 | S = 0 | Stoichiometry = C29H28Cl2NPPtSe | MND = 4
Pt        3.15751886761528    6.31312400434685    2.91726175284815
Cl        4.72827661687763    4.93674853695898    1.96321208352201
Cl        1.59979463379127    4.70268365372537    2.62410728150124
P         1.50809060686897    7.73132327883463    3.54093514265865
C         1.21960056711243    8.02071552600918    5.30966890822251
C         0.62080913061769    9.17627096822425    5.79799369572735
H         0.33600300392257    9.96483868289904    5.11579957897538
C         0.39431130388068    9.30553031176558    7.15669738812398
H        -0.07601422164653   10.19948042296301    7.54047268547671
C         0.76916875761769    8.29288025110446    8.02671863657204
H         0.59563666169364    8.40383013898230    9.08673293301190
C         1.36618295122372    7.14074489162976    7.54048717820933
H         1.65382431323489    6.35300464946874    8.22035099278714
C         1.58791220775436    7.00200202658374    6.18256394782287
H         2.04082979112541    6.10485848715701    5.77428737529210
C        -0.13399620775718    7.40281410072528    2.85294463499287
C        -0.20471029247290    7.24911316605201    1.46922830297312
H         0.69839046758300    7.35527040544174    0.88030351363355
C        -1.40918708846087    6.94335541749165    0.86950269834185
H        -1.46319206153843    6.81806965853271   -0.20151251144300
C        -2.54667260307393    6.78088996207110    1.64712030827038
H        -3.48767106650196    6.53298999966240    1.17902627474325
C        -2.47547362339323    6.92084689927252    3.02225286561245
H        -3.35972183266604    6.78164481652611    3.62670379622830
C        -1.27023535487351    7.22785217578678    3.63163343144570
H        -1.21252020843587    7.32291752448862    4.70687442617188
C         1.92727757148346    9.36222054523333    2.85477541444063
C         0.91349942918747   10.22450755248842    2.44920233608144
H        -0.11615059888105    9.91047329587586    2.55387330790985
C         1.20027787615735   11.46005145727035    1.89933054416631
H         0.39855997678806   12.10977392587488    1.58231620751535
C         2.52172002712589   11.85463720431580    1.75404576180574
H         2.75681587034225   12.81327460869672    1.31659942573676
C         3.53674252541359   11.02064955977690    2.17299413294295
H         4.56489299721552   11.33157036302166    2.05861442819882
C         3.27032413308502    9.75902828068905    2.71921287282900
C         4.41762113678707    8.98605183492251    3.15121532967298
H         5.29598789292178    9.60218378983874    3.36063950801481
N         4.52669379341141    7.71605596396475    3.29914244711174
C         5.76522056690131    7.18837729893024    3.81187864112479
H         6.49028865995779    7.99254321106623    3.98622586973822
H         6.15486461283103    6.49192885726455    3.05774517625659
C         5.51056549899134    6.39027183252400    5.09589692309000
H         4.75726122624602    5.62442366249523    4.86624170990792
H         6.43067757287735    5.87870789906274    5.38112949597714
C         5.01464396169785    7.26637223687855    6.24620685022476
H         4.25343716774846    7.95876569871969    5.87085868818709
H         4.53800104868741    6.64167081632332    7.00343808560451
C         6.13692973760976    8.05131900185961    6.90336758003600
H         6.74033429669566    8.59812394075048    6.17826749943652
H         6.78987981727723    7.40252856325520    7.48861725620007
Se        5.41554821954248    9.38578082076523    8.16904827802326
C         4.73849701471477   10.62384152071590    6.84879493301721
C         5.59941757244812   11.21328065956390    5.93472694839156
H         6.65467498624117   10.97890340681774    5.95660896402336
C         5.10687083434112   12.12017632854520    5.01486783923022
H         5.78029812845404   12.59019319162045    4.31248106866224
C         3.75993317192419   12.44518641187987    5.00872025653455
H         3.38029621958097   13.16360277731215    4.29821427805810
C         2.90497266560316   11.85886468662101    5.92516055252894
H         1.85622354300931   12.11573751174410    5.92733423629567
C         3.39181730948868   10.95106603022727    6.84869430883922
H         2.73452821587303   10.49585529651320    7.57464552249689

