47
CSD_code = MULZOI | q = 0 | S = 0 | Stoichiometry = C22H16Cl4N4Ru | MND = 6
Ru        3.78439761915457    5.35475185603230    3.85803228433591
Cl        0.17848080798514    8.26567423803549   -1.09397874978063
Cl        3.65876303771383    0.44911885897783   -1.02242792558134
N         3.08507617214538    7.17965254168800    3.83352356436657
H         3.05013443455221    7.84276462995341    4.60989858367054
N         3.20811184221801    5.48440111544038    1.97783019500643
Cl        4.31523247564656    5.35036739611394    6.13985607844025
Cl        1.62033037208303    4.64986597197470    4.34364991613793
C         2.37301472436988    7.50296484600202    2.77114868699024
C         1.61186723126194    8.68328057796734    2.58644563881568
H         1.56072063256286    9.40536337589268    3.38796279643302
C         0.94189501013953    8.88839418322912    1.41559495621906
H         0.34755968135598    9.77589823789858    1.26684040313734
C         1.02279122288982    7.93902685824392    0.37438301590594
C         1.74953083544713    6.78480926433708    0.49436968680585
H         1.81028141439966    6.07828509478001   -0.31833125343245
C         2.42908565104704    6.52843685497900    1.70418658643514
C         3.28945470286371    4.35778397428657    1.17706281542605
C         4.54641549604911    3.85663699954653    0.82618112947919
H         5.43151186508075    4.42012581298268    1.09102188746366
C         4.66051441600045    2.66386039162682    0.14250920834586
H         5.63066623035467    2.27905646106640   -0.13006165779902
C         3.51448398652199    1.95606840169979   -0.19091836669610
C         2.25869249142460    2.44019630368913    0.14418678340847
H         1.37639946726604    1.87690981271807   -0.11545937994807
C         2.14509132736771    3.63981839097276    0.81777971358144
H         1.17756092529627    4.00762624321934    1.12344166790674
N         4.51819567454198    3.49783263694442    3.84946002232812
N         5.70596055810894    5.75662694057153    3.63661015785185
C         3.81240335950594    2.37051679293417    3.83784213318313
H         2.74229756440239    2.48212480117642    3.70989093798868
C         4.39016340303673    1.12734064396469    4.00519160458760
H         3.77412429062352    0.24339046509787    3.99564908949625
C         5.76364703465561    1.04459682967350    4.20127904218285
H         6.24419153097782    0.09003888506169    4.34992743020153
C         6.50373154411758    2.20981522132427    4.20581501174881
H         7.56998582571321    2.17677721962253    4.35948570612629
C         5.85779772636703    3.43289750908855    4.02085167138753
C         6.53096484006962    4.71984247991622    3.91948171672664
C         7.91008411724141    4.90677670363820    4.02657518675685
H         8.54841835114622    4.07473848801423    4.27387913756638
C         8.44724484738120    6.16223107029020    3.83123513240988
H         9.50870412679022    6.32778016871006    3.92605122791391
C         7.58968218478858    7.20994910325523    3.50595695199267
H         7.96736991870160    8.20444807961634    3.33333325062807
C         6.23641069538101    6.96184178784456    3.42269948321676
H         5.53665833325547    7.75469547990115    3.18585684063171

