37
CSD_code = MUMGUW | q = 1 | S = 0 | Stoichiometry = C12H17N3O3ReS(1+) | MND = 6
Re        4.64760640314845    2.09676387311237   12.84884973153254
S         4.41078789940113    0.99173024446394   15.15802977146350
N         2.48864671285548    2.68259224362178   13.41119242742974
H         2.49358075416871    3.60817970743528   13.84710529372894
H         1.90888999107544    2.77198310957240   12.57564578161551
N         3.64460270608607    0.31459624890584   12.01658720379311
N         3.85392378267457   -0.94578990280447   12.46444473021277
C         1.84742979102476    1.73207350649789   14.33129982185582
H         0.85712245144164    2.08399281408436   14.64820314065508
H         1.70913760210853    0.77895415641971   13.80860706162838
C         2.73633267324262    0.22394513191044   11.04323828241711
C         4.76363898593456   -1.24959386675510   13.53525649722618
H         5.72693632177888   -0.75869922563093   13.35431372806666
H         4.92953182741709   -2.32835617685057   13.53969907868663
C         4.20937872993489   -0.81427126935612   14.89047070144371
H         4.76798558241859   -1.29748704626044   15.69152267460077
H         3.15291376188559   -1.06427081345583   14.98484577030693
C         2.71170621166765    1.53576604889828   15.56742970968649
H         2.28012880263985    0.81041084501426   16.25473846585666
H         2.84999641285373    2.48107040297586   16.09588879754380
C         3.08423043806278   -1.83584118221832   11.79778607872493
O         7.51082938257287    1.05731956459400   12.32303711377493
O         5.79009257706568    4.54610632028073   14.34485615531942
C         3.09022141418353   -3.29382231590904   12.06049815341441
H         2.85039889545773   -3.51766387012694   13.09967581779021
H         4.06402147583639   -3.72577800876131   11.83016213568961
H         2.34999860902617   -3.77266072129605   11.42634187701105
C         2.35436851430002   -1.11213002957584   10.88097315988938
H         1.64552457749230   -1.49065586288218   10.17515717921860
C         6.45235398835962    1.44278924611004   12.50084099561642
C         5.38464432775072    3.65432253533999   13.76973009135724
C         2.20170864115180    1.36023518781427   10.24866621769932
H         2.71072597217950    2.29428228510502   10.47400082061045
H         1.13103019206977    1.47221369151896   10.42171115573751
H         2.33604643265812    1.14693439095362    9.18977639289426
C         4.77795201043193    3.06742494977350   11.15684432518915
O         4.93047514764363    3.67913378748111   10.20467366031157

