45
CSD_code = MUMGIL | q = 0 | S = 0 | Stoichiometry = C22H16Br2N4Zn | MND = 4
Zn        3.60421068955140    4.73128950859112    0.65728058912940
N         4.08013840771687    5.08070546514104    2.58335482209954
N         4.48041883188613    6.46523403320089    0.10463835942209
N         3.11469134831886    4.35208936965008   -1.26310658105808
N         2.69361257468543    2.92765012195725    1.23415397097151
C         3.79991480420502    4.29508810349731    3.64866273723934
C         4.30358099879282    4.88167809852695    4.85152664608541
H         4.21911379124605    4.46844328037782    5.83727319080297
C         4.89541435643930    6.04504041781070    4.47503903316757
Br        5.75387991078944    7.29132295110727    5.58323971802096
C         4.75635734663873    6.17316207304085    3.05035244907864
C         5.22868432882596    7.22698923394594    2.29736222717497
H         5.74591467673139    8.01989139153034    2.82019561223625
C         5.09648022173712    7.35962302376761    0.92233958246736
C         5.59165140937364    8.46501356802153    0.15627441993707
H         6.11707828781205    9.30632456296954    0.56498366937615
C         5.26336150150002    8.22031725196739   -1.13663012461107
H         5.46527389986457    8.82163891389745   -2.00181318633719
C         4.56873318851827    6.96621324404125   -1.15593505421566
C         4.06506350507749    6.35712933630332   -2.29718741709325
H         4.21120525533284    6.87348556906932   -3.23531851575000
C         3.39572680780407    5.15054278970103   -2.34202107858902
C         2.89216281920958    4.54869873115750   -3.53864810276126
H         2.97186204539472    4.95556941547891   -4.52736152752586
C         2.31042906628956    3.38491473900809   -3.15156349532284
Br        1.45901169986050    2.12025665088861   -4.24758273122784
C         2.45453731060221    3.27031029462980   -1.72530078903385
C         1.97981084035685    2.20475529098755   -0.96469117183854
H         1.46962631194660    1.41587524183217   -1.49953774615308
C         2.09820437888580    2.06457833731786    0.39253017215956
C         1.54146666543906    0.86230617047854    1.10919235064388
H         2.00066949662300   -0.05237253298700    0.73172556691488
H         0.46580773482710    0.78469499845590    0.94554135981916
C         1.88893887933719    1.12289299220936    2.58044703216747
C         2.61621344811259    2.45926774813808    2.49586856340312
C         3.11768283271367    3.07667387857093    3.60777462305876
H         2.98222194106909    2.58456028982100    4.55939016889684
C         2.81058041116357    0.03808329717157    3.14153383601400
H         3.72072122798014   -0.03238962068616    2.54994272723429
H         2.30527970468205   -0.92531379295290    3.12266599347276
H         3.08816941490821    0.25857767963035    4.16901247409110
C         0.63036372733421    1.24692560747127    3.44192244429267
H         0.88748810111938    1.47903186386241    4.47227132744299
H         0.07756742283907    0.30984687157185    3.42959927033403
H        -0.01362162354299    2.03828353982959    3.06400258436452

