66
CSD_code = MUMNOY | q = 0 | S = 0 | Stoichiometry = C25H30N2O8Os | MND = 6
Os        5.90616214473919    2.23482791092735    7.66928907538734
C         6.71491267326188    2.37157659152090    4.97540036099891
H         7.08599241390795    1.36509478285542    4.71514835612787
C         7.81624670265181    3.07057231899185    5.80715631769792
H         8.81019163840099    2.81530513188726    5.40023825988265
C         7.74304807106959    4.63751584634458    5.88741641370008
H         7.78359770866194    4.90489169329648    6.95380516941129
C         6.47130544498871    5.13767196653759    5.29779294843073
C         5.63478440807280    6.17959061457282    5.59596798278941
H         5.71063507272154    6.96711251934576    6.31998453520314
O         4.53556514415419    6.15457158863053    4.83312697482878
C         4.63627319367631    5.06929927741358    4.02494962964006
C         3.60938261184156    4.53033618334910    3.15874803719753
C         3.94475458363647    3.15769456782286    2.67374691578806
C         2.98150324850923    2.47613951682181    1.92214559392115
C         1.63795275307362    2.96060404694176    1.47865660294705
H         1.74105777994264    3.86488721870332    0.87759198447083
H         1.02961214649480    3.23695760483701    2.34093225820115
C         1.03392649249640    1.79694397167586    0.68554334095011
H         0.09453672199066    1.44265270844964    1.11110340095004
H         0.83455755592416    2.06157463733075   -0.35355605995507
C         2.05394182920268    0.67269621045502    0.72003532280568
C         3.20723362414276    1.17347953242007    1.48094951589320
C         4.39300370468610    0.51446004577483    1.76839169767200
H         4.54777323063870   -0.49604435782207    1.42222528902296
C         5.35478484401579    1.18813901743208    2.49365358605075
H         6.28641901418899    0.69218660310063    2.71772604196039
C         5.15512054003051    2.48785881179688    2.95497546834114
C         6.28946413612217    3.15650863289352    3.69751774149791
C         5.82813923870622    4.43799851332506    4.26086531452299
O         5.56711731688043    2.24272081953429    5.76329098129446
O         7.76824803429012    2.53386130987834    7.09551160810953
O         8.82676705610473    5.23181699061081    5.19228359400392
H         9.64594666862603    4.99121794461873    5.63859017125422
O         2.56219085093830    5.09227148866779    2.88918016249608
O         1.92903540368826   -0.41790990950505    0.21574442954701
C         7.48061298750891    3.36335672303171    2.74859596679588
H         7.13395886039229    3.83155036738662    1.82972660120675
H         7.94626844931552    2.41300887077586    2.50208542025414
H         8.21557437141543    4.01429523719855    3.21358546311780
O         6.00689462976088    0.62964523960826    7.83552134355964
O         5.59164401277033    3.79457592944682    7.96697489230924
N         6.04111725524922    2.11532573143945   10.16500245180436
C         7.11225966103337    1.19641912062588   10.53954379807039
H         7.11734930911405    1.00583295047250   11.62097104129429
H         8.06716510054527    1.62416205588184   10.24281900540174
H         6.98495513282010    0.25815477652261   10.00265488840616
C         6.28160026391221    3.41877670750725   10.77311838723515
H         6.23425439045957    3.35986062886938   11.86931008718821
H         5.55085632847363    4.14046768906580   10.41685439923360
H         7.26579244658055    3.77238260421360   10.47496839412288
C         4.74045224556049    1.56821938420364   10.56783075311369
H         4.75220158204583    0.49692714067472   10.36084278705240
H         4.58717354857939    1.70770425751625   11.65029427258521
C         3.56975233635831    2.20915981778722    9.81802793043319
H         3.60248468798028    3.29034556818862    9.96204026642896
H         2.62661063077866    1.83403762531052   10.24500614937407
N         3.61153879095302    1.94687497498835    8.37437835113035
C         2.79952681264754    2.92566445709124    7.65477616325703
H         2.84496710538464    2.71051509787358    6.58903964739443
H         3.20916573103869    3.92239080921681    7.81130625485513
H         1.75511331526735    2.90008932888071    7.99007741011134
C         3.13660359396554    0.60308152513606    8.06125673624913
H         3.78317931170339   -0.14096301929246    8.51980357614200
H         3.17815977050387    0.45623235166607    6.98426800651443
H         2.10568333541016    0.45882369726245    8.41039053233258

