105
CSD_code = MUMTIZ | q = 0 | S = 0 | Stoichiometry = C54H46BrP3Ru | MND = 5
Br        1.83369677454416    6.18277908338274   27.83476290257897
C         0.02593917376308    9.05289798744161   29.19368303216529
C         0.81726316866770    8.70009846789367   30.28303676345338
H         1.90682772298985    8.65099361045567   30.16396065682171
C         0.24413602863107    8.43004941613936   31.51126109360509
H         0.86801614449447    8.15434821904691   32.34872324317766
C        -1.13113027211735    8.50957390861116   31.65648663620572
H        -1.58485804778853    8.29176294675517   32.61212768651428
C        -1.92593483949603    8.86536652286705   30.57804772984485
H        -2.99813593908349    8.92845540571373   30.69545312982198
C        -1.35461997264695    9.13910086011236   29.34890234346917
H        -1.97488835514467    9.41684686402937   28.50787514854838
C        -0.41551248693287    9.06416147173218   26.41026971471206
C        -1.05095600293861    7.82409569900151   26.45167512052643
H        -0.76263621037467    7.09258811731606   27.19349761269954
C        -2.04984598327747    7.52362034176238   25.54600001629252
H        -2.53807042235665    6.56110037053915   25.59028036703593
C        -2.42319462675149    8.45211932209518   24.58803198466033
H        -3.20703855985006    8.21839306630478   23.88222525735599
C        -1.78862526646826    9.68143936346315   24.53769715460181
H        -2.07543844404524   10.40963272426122   23.79259775225130
C        -0.78750421506309    9.98902800323610   25.44090858464769
H        -0.30210411782481   10.95302318547682   25.39202341387998
C         0.94301057105459   11.21989107232801   27.61647510407717
C         0.33328024414757   12.02204915144923   28.57224970532568
H        -0.23010309129614   11.57649115736593   29.38031607962855
C         0.45217432777257   13.39944474310117   28.49219702765769
H        -0.02192384310453   14.01972982016117   29.23946008455192
C         1.17462525709443   13.98331243611818   27.46557804863913
H         1.26441634897702   15.05844540940003   27.41154499220987
C         1.78936886979709   13.18630245326262   26.51215056567957
H         2.36325132700428   13.63493080339457   25.71376807801929
C         1.67538923783882   11.81252679440466   26.59172249382560
H         2.16344041604798   11.17177541605777   25.86650832566315
C         2.51977939568663    8.83678841313155   24.48851613700694
C         2.42662602079533    9.86180765845954   23.55281572924042
H         3.10142688800739   10.70548509769211   23.59853316409341
C         1.47081908493973    9.80398971827002   22.55380355049050
H         1.40403722880754   10.60715531020393   21.83386607732870
C         0.61007544915762    8.72295987396559   22.46833737627619
H        -0.12561185998987    8.67786932259956   21.67890084294100
C         0.68918304973226    7.70424264613181   23.40277112794218
H         0.01462977771182    6.86272179096873   23.34991939891177
C         1.62507772786093    7.76954121509032   24.41735773450582
H         1.66053071518228    6.98630428026476   25.16324371966350
C         4.80025210304349   10.25703455017258   25.45170297259624
C         4.86112468811511   11.33222857581815   26.32710888972960
H         4.27317264919252   11.30057813250164   27.23318159791465
C         5.65600936070839   12.42751404003867   26.03807554831143
H         5.69447340054526   13.26008320791195   26.72580232812561
C         6.39776738803886   12.45571381403676   24.86982942782406
H         7.02128981612558   13.30827309298814   24.64282181323748
C         6.33894706541013   11.38701852612686   23.98817125006443
H         6.91461125084339   11.40811839748096   23.07391984385856
C         5.54617605072961   10.29218005764366   24.27456678079175
H         5.50076173011708    9.45861232833926   23.58610779442993
C         4.91198378071648    7.50966698063596   25.22298547734102
C         6.20887581423675    7.56052344266270   25.73358021978565
H         6.48803097902206    8.38762671445345   26.37284845943095
C         7.13003910281834    6.58391552447687   25.41152605028013
H         8.12982988464568    6.63540800811011   25.81787430647254
C         6.76959214849982    5.54424976680437   24.56849859859554
H         7.48675830077190    4.77651366088963   24.31798844544441
C         5.48966772328064    5.49692025592430   24.04346974024344
H         5.20724154269024    4.69422160806217   23.37770215414076
C         4.55952679058122    6.47044422853687   24.36917139125968
H         3.56396816471074    6.41783910001653   23.95343415600233
C         5.26328238978862    5.62080678685291   28.72611528330688
C         5.90296448462772    4.97879370163616   29.78582032383087
H         6.10066886832392    5.51782654416087   30.70361970970952
C         6.28195464156304    3.65595347602905   29.66661897215785
H         6.77560831363861    3.16402161122081   30.49273202323915
C         6.02870926451959    2.96092611673142   28.49378630095584
H         6.32351542391535    1.92522460595190   28.40763940161357
C         5.39271924750283    3.59339063167439   27.44067183636140
H         5.18488167441379    3.05642694933666   26.52722772227493
C         5.01119113366521    4.91829262243861   27.55624937473530
H         4.49846689211640    5.40276058707359   26.73907952136965
C         6.42535754433641    8.19506018526159   28.89019478529910
C         6.44972162193962    9.58739907910321   28.88863262371515
H         5.51247094947461   10.12588771089576   28.87514214671749
C         7.64902242896342   10.27332903973574   28.87449567720812
H         7.65055273142078   11.35371101801791   28.86965151119183
C         8.84439274720144    9.57380255219117   28.85448189262927
H         9.78457435596347   10.10536537440970   28.83734386862137
C         8.82888961738927    8.18937075256103   28.84520184275326
H         9.75875611193094    7.63905957366119   28.82120972844931
C         7.62916766589248    7.49949855407561   28.85999328473320
H         7.63676459448542    6.41987952769870   28.83357760213333
C         4.32483133750733    7.41815863617883   30.63698856796145
C         3.45745293107108    6.43130515373541   31.10928228545929
H         3.12021733749234    5.64327075349419   30.44655023871301
C         3.03660935353099    6.44625405002110   32.42551163147797
H         2.37187926752324    5.67258081585944   32.78217607528769
C         3.46389562276594    7.45022186586301   33.28082569742526
H         3.13609749454647    7.46085791938270   34.31051151906664
C         4.30951864002668    8.44182966909497   32.81223221278893
H         4.64102533421917    9.22827431004415   33.47510672280937
C         4.73884069151485    8.43081378431695   31.49655725398305
H         5.40384834645001    9.20450707502754   31.13942979315084
P         0.90250656814318    9.39775290425372   27.63286750961415
P         3.75962463372085    8.79795458397441   25.83685032701351
P         4.78475377239877    7.38174305867686   28.86184787287344
Ru        2.94072806367316    8.36157739249344   27.89434935901538
H         3.41774977331534    9.69918747175322   28.46379754595794

