85
CSD_code = MUMVAR | q = 0 | S = 0 | Stoichiometry = C33H47CoNP3 | MND = 6
Co        2.23774942280983    4.38438737891651    3.16629223180131
P         1.88136342132342    3.18127799779589    5.00696527371158
P         4.39960407162417    4.85390126268454    3.70129728410060
P         1.43537263813257    6.49392899087442    3.34376731051712
N         0.12027083674948    3.00117406104145    1.99338329364979
C         0.18204385146149    3.70242573193482    5.36933237393314
C        -0.49131632829137    3.83601689674330    6.57053076497869
H        -0.00080383390984    3.61315108173361    7.50883857757511
C        -1.80677252437585    4.27794000197263    6.55661248890600
H        -2.34093255887921    4.40281549715352    7.48791056512170
C        -2.43810159008555    4.55836850900319    5.35545696225648
H        -3.46339974221515    4.90150594718352    5.35745418591187
C        -1.77303588039096    4.39496300656057    4.14959992449977
H        -2.28564174652809    4.60646390883766    3.22106544096080
C        -0.44929717865778    3.97229457229259    4.14972736013188
C         0.42006697150161    3.72257904428595    2.97850664126521
C         2.95307631407111    3.24103419153349    1.52708867466715
H         4.01757884109025    3.03738738033441    1.58884629785182
H         2.31972141432927    2.37765601667355    1.38986750141358
C         2.51609708587036    4.47429686305121    1.09525556439081
H         3.23063169458842    5.24696788508616    0.83084278160951
H         1.55229362573270    4.54902340542701    0.61179303091029
C         2.63922865993416    3.20933279496365    6.67014601722188
C         2.55563615369165    4.39260361271312    7.40150812675397
H         2.00358694216454    5.22502336036059    6.98428889765745
C         3.15811544642561    4.49773812477143    8.64049528384840
H         3.07725540977881    5.41566829064228    9.20589141344019
C         3.87042275129468    3.42583619239554    9.15617861204261
H         4.34408599533709    3.50646129317431   10.12365386562561
C         3.97456843083318    2.25272000351592    8.42747943333324
H         4.53229151816823    1.41750200352756    8.82669409213646
C         3.36558630540032    2.14307602050804    7.18963854533171
H         3.44407260564019    1.22246668710205    6.62677203667756
C         1.62926087207129    1.37996802255670    4.81090058947620
C         0.61342474595152    0.69807826032508    5.47206707077216
H        -0.04295943728255    1.22981220020157    6.14707721886004
C         0.43655568130444   -0.65697359352333    5.25952654848976
H        -0.35944381465639   -1.18116455502631    5.76939529369386
C         1.27240235757272   -1.34285704259034    4.39275307778961
H         1.12572081877993   -2.40009740911016    4.22502855791091
C         2.29013283375094   -0.66962386078241    3.73700130134124
H         2.94077490753518   -1.20226517403984    3.05797030570732
C         2.46446899507249    0.68663277942744    3.94270078382042
H         3.24163140127914    1.22859698449342    3.42363981219960
C        -1.10094022112790    2.26328397986470    1.81778473559407
H        -1.74346344929043    2.28303662642805    2.71752017597432
C        -1.87542898504115    2.84723972573231    0.63222539522739
H        -1.21656523817401    2.85252852379372   -0.23828517757995
H        -2.14827269945377    3.88346649152259    0.84796786783966
C        -3.12341304059105    2.02172293946224    0.34011068967897
H        -3.79254644946656    2.05930223716742    1.20391662839110
H        -3.65572937318399    2.44678859160194   -0.51440807355974
C        -2.75132862342864    0.57033587338509    0.05344747732910
H        -2.13054618364729    0.52770822783826   -0.84450207110668
H        -3.65408931616536   -0.01624947212690   -0.13373705844328
C        -1.97803221691246   -0.01966414274800    1.22890306932221
H        -1.69444303263348   -1.05172886589873    1.01012967713232
H        -2.61723124042024   -0.03000163521762    2.11567363388683
C        -0.73062680796474    0.80697816736087    1.51791862871471
H        -0.06143639442230    0.79172016005887    0.65572684047811
H        -0.18852736925537    0.39341879396732    2.37127393493586
C         4.77361213224331    5.89392275788204    5.17558945847325
H         5.84962524515911    6.02558791967519    5.28778846928861
H         4.37642692132024    5.39772906696641    6.05935031577986
H         4.29819645945895    6.86784419269887    5.08395760490516
C         5.39111279453952    3.38468061918810    4.19735229326438
H         6.37987386469145    3.68897799713336    4.54085697962067
H         5.49741205268266    2.70520621687249    3.35434713815213
H         4.87054135452998    2.86595025081046    5.00163481827842
C         5.58970130735659    5.59855259367391    2.50610179356656
H         6.58634049953297    5.65181956188043    2.94337305150526
H         5.26110166185795    6.59897735068321    2.23219751897860
H         5.62324314175209    4.98678165946768    1.60664866327748
C         0.87539047319286    7.22554512826291    4.94065631407192
H         0.47211615373651    8.22600846600999    4.78614454495981
H         1.71767957596926    7.27688888963629    5.62877971137088
H         0.10737326726509    6.58731578801520    5.37416877560621
C        -0.03375667802518    6.89049607249600    2.31738259718936
H        -0.26224914271067    7.95518511373196    2.36689447703966
H        -0.88603362080298    6.31855776985442    2.67121229295676
H         0.17348839934731    6.60577692326480    1.28809390871834
C         2.50401656876353    7.87671591493557    2.75604966402483
H         1.98341833652308    8.82966627769990    2.84734758800022
H         2.74913673244485    7.69877871840121    1.71061442405867
H         3.42736475428470    7.91435390171638    3.32884980876219

