44
CSD_code = MUMVUM | q = 0 | S = 0 | Stoichiometry = C22H14BrN3NiO3 | MND = 4
Ni        5.60156796380720    3.04944425475019    4.14461460652845
Br        6.00996690864877   -1.09941398174378    1.36501457655170
N         5.93306820996366    2.93001698557490    2.29310971813739
N         6.29268882830436    4.77588101078731    4.25265709571557
N         5.54066169612304    3.12005431796510    6.05164406710058
O         4.07894802142483   -0.60470007978576    3.60871295901723
O         4.75389851472165    1.41104389674934    4.22888721346509
O         7.57294778580069    5.98344746738514    5.76330344876168
C         4.73666852582402    0.40007689335301    3.44494034533233
C         5.64794793516097    0.51937933513428    2.24461243236920
C         6.16279142657910    1.66372904215359    1.76810570656047
H         6.79982031341896    1.62080036836482    0.88872043475785
C         6.09053411729034    3.95374967055579    1.48055579540758
C         6.07455652972509    5.32868577300220    1.89736124263556
C         5.91797334049063    6.32886196416766    0.91816123673260
H         5.73924223311885    6.03327951731650   -0.10411209440242
C         5.95812982682390    7.66231911359620    1.23533510209737
H         5.82946563223809    8.40852426330621    0.46702186471840
C         6.15558810205262    8.04150637403085    2.56091724286892
H         6.18470294085292    9.08787959906798    2.82484880704217
C         6.29278445463675    7.09294648192958    3.54442966808282
H         6.42907165460326    7.40610147363136    4.56577913701088
C         6.24418470315783    5.71783417857375    3.25601911108643
C         6.82356881692386    5.06731501051628    5.47820450025996
C         6.34206976782987    4.08997321937004    6.51245034712711
C         6.63876866890330    4.23273814041822    7.85923324869310
H         7.29891290871017    5.03058450960633    8.16179472913222
C         6.07304900635938    3.34492021372431    8.75999269302986
H         6.28059783669501    3.42604781947056    9.81622328993729
C         5.23178896101731    2.35441089037400    8.27722456439866
H         4.76308667771810    1.64913653615826    8.94478631912005
C         4.99485143967802    2.26853990336534    6.91275888215436
H         4.35804936832000    1.49923700821796    6.49375169642817
C         6.28412602312601    3.70563462375318    0.03049658991648
C         5.28732039738180    3.06424208844491   -0.70287882721672
H         4.37738907075898    2.75535051502981   -0.20934881598958
C         5.45707248749577    2.84302481449232   -2.05678318716896
H         4.67804324568083    2.35197425137873   -2.61942076566107
C         6.62508259842450    3.24274308872728   -2.68588784390886
H         6.75882708146388    3.06046341384843   -3.74119821531749
C         7.62105801610597    3.87557211106677   -1.96007770325692
H         8.53287369212108    4.18580058649505   -2.44742736532815
C         7.45153006570848    4.11573850883536   -0.60857452120551
H         8.22482420481002    4.60850482684017   -0.03805933272181

