107
CSD_code = MUMVOH | q = 0 | S = 0 | Stoichiometry = C30H64N2O6S2Si2Zn | MND = 4
Zn       -6.20004800992035   10.21394370622869   10.21293597569227
S        -5.48271821778299    8.66611362806257   11.75050848114973
S        -5.85251284666395   12.39536040628736    9.55410515843291
Si       -4.33113988631611    7.76621434023681   10.24005985515889
Si       -7.24494232030518   12.96870360392003   11.02313665394572
O        -4.57802930341972    8.82716834196501    9.01326641646449
O        -2.77512340408001    7.52656626028534   10.63972567461034
O        -4.90016777764339    6.34341162511980    9.71246758964210
O        -7.84397523923539   11.49805864987210   11.44434666586603
O        -6.63027299868446   13.83665115008751   12.24948584025079
O        -8.50479505831707   13.80725908717125   10.44876413978545
N        -7.79135017963528    9.32737338807167    9.09710375380072
N        -9.50718697529582    8.78081314753398    7.86847320516713
H       -10.29816504308094    8.86500139832235    7.25163518795314
C        -4.16276131344168    8.73870525189928    7.64929183982040
C        -3.75988107506306   10.14764135879410    7.20925596348047
H        -4.53477593319574   10.85932409793422    7.48189654047360
H        -3.60244898800094   10.17629400214064    6.13431562201756
H        -2.84367851943482   10.44987425108967    7.70947525008474
C        -5.35639506156389    8.23911408750385    6.83184455187291
H        -5.69064830503786    7.28616079139502    7.23492758437701
H        -5.07728880486411    8.11413814385169    5.78866936102720
H        -6.17174451713143    8.95377509719767    6.90130908297735
C        -2.98645629271518    7.78134169820117    7.47747187527495
H        -2.15986623634135    8.08390048860900    8.11319313809544
H        -2.65639020977284    7.78617987866338    6.44125312062935
H        -3.28127164749018    6.77436039014038    7.75547229843236
C        -1.84701894108965    8.31644641259179   11.37474630083739
C        -1.95862017854494    9.79020428226536   10.99192876123837
H        -1.81257492639221    9.91390172602567    9.92195274712189
H        -1.21035518195592   10.37343069902517   11.52165840137740
H        -2.94629795389864   10.16663721371724   11.24588108452273
C        -2.11915305604244    8.13703049508974   12.86910222539476
H        -3.13614533988687    8.44945245633484   13.09221581843325
H        -1.42222336247419    8.73238364581415   13.45205441114125
H        -2.00939489061035    7.09102371578740   13.14573077057906
C        -0.45854792531304    7.77689722755362   11.01563448481805
H        -0.39817071129067    6.71844385197897   11.25673330766514
H         0.30606998781368    8.31103849089302   11.57255036364305
H        -0.27123325328258    7.89843779388539    9.95143301842204
C        -4.77329260934182    5.04692723004925   10.27491575178122
C        -4.87512998815077    5.10426904339577   11.79606814528334
H        -4.02946285253763    5.65393543607300   12.19699116281394
H        -4.88565852330729    4.10091948639641   12.21305922339163
H        -5.78136610733623    5.62748426812341   12.08855889265997
C        -3.42133401006235    4.46600666495232    9.85840109813164
H        -3.37598875774095    4.35416816785879    8.77751994523221
H        -3.26675338694884    3.49551587717299   10.32193474537959
H        -2.63659255319878    5.14820130566274   10.17122483299060
C        -5.92159348402420    4.21550929131304    9.69473529607783
H        -6.87531863782119    4.62063865193714   10.02348491613820
H        -5.84125584494773    3.18329595141009   10.02376856277314
H        -5.88837161567303    4.24609331968071    8.60837537901225
C        -8.97942136912741   11.20288280015461   12.25901651166407
C        -8.80133012811505    9.77407184417413   12.77276091497628
H        -7.86159356616566    9.68371388780808   13.31042901733466
H        -8.76884603222737    9.07982657280506   11.93724796417295
H        -9.62397249766540    9.50554165876950   13.43059385592580
C       -10.23869284326068   11.30136356394848   11.39413125349110
H       -11.12513910780573   11.11775006628018   11.99589803856900
H       -10.19130098495300   10.56431162174846   10.59611951291652
H       -10.29604346034469   12.29235769292660   10.95340330893577
C        -9.07676409744013   12.17424152430877   13.43284148718072
H        -9.19417394914463   13.19031305954743   13.06790552616937
H        -8.17126435603351   12.12264074148614   14.03057892003800
H        -9.92783695934127   11.91773069303433   14.05913684975036
C        -5.40137016272865   13.77332359361338   12.96634299321526
C        -5.02532578552105   12.33045811969764   13.29117061146881
H        -5.82485775286668   11.83980405038746   13.83961472302772
H        -4.11913530340360   12.30396615075556   13.88984166097316
H        -4.85638865791105   11.76963831697897   12.37403869602261
C        -5.63094386328326   14.56579912964467   14.25750351253585
H        -5.92372753128336   15.58582621523185   14.02044218325034
H        -4.72094597150189   14.58767579658293   14.85025971958504
H        -6.42444587390647   14.10629148731107   14.84148000259361
C        -4.30380550530028   14.42699190767647   12.12479280506231
H        -4.21470980633103   13.90690734551337   11.17428056710620
H        -3.35334560448645   14.38324457977081   12.64891174302644
H        -4.55139452391945   15.46757940240313   11.92751760203527
C        -8.60966949876756   15.18735477712497   10.14038215481923
C        -9.73607943816115   15.31071052182637    9.11013521599209
H        -9.44988469027717   14.79946731245389    8.19476736539511
H        -9.93035385401302   16.35612454540324    8.88787118345461
H       -10.64476524247750   14.85488804786622    9.49602509842124
C        -7.30291409488681   15.71499606843594    9.55787611597284
H        -6.52861437841898   15.68919549063262   10.31739700619943
H        -7.42973576602701   16.73474886271937    9.20480946744235
H        -6.98431993150718   15.08112647951202    8.73490805220679
C        -8.96295586930627   15.94112083909645   11.42313011864417
H        -9.92148645817493   15.59940940727760   11.80726737640281
H        -9.01656632888371   17.00957452704291   11.23335372159603
H        -8.19759024755889   15.74244828189881   12.16758036517262
C        -7.96916532274119    7.97832985207739    9.18040660935101
H        -7.31199768228293    7.37151776443084    9.76835814922474
C        -9.03619928262170    7.61990048829065    8.41940715386618
H        -9.49096428120129    6.67018613172375    8.23018904649925
C        -8.73013330142143    9.79677464126675    8.30174639717374
C        -8.91408785261225   11.21739228284207    7.88476982515696
H        -8.64301159174501   11.84785484015357    8.73540246766508
C       -10.36119208011310   11.50863343140157    7.48550252486789
H       -10.62157425523668   11.01256411550172    6.55098046149864
H       -10.48546655297949   12.57770228615411    7.33717278400844
H       -11.05468470640398   11.19561983665307    8.26300502196742
C        -7.95665023651375   11.54296358436615    6.73260283421589
H        -6.92845684729934   11.46363660846732    7.07386257156057
H        -8.12210389625704   12.56283636430661    6.39632180648577
H        -8.11218234956842   10.86812981304954    5.89215865043491

