60
CSD_code = MUNDIJ | q = 0 | S = 0 | Stoichiometry = C30H27O2Y | MND = 12
Y         2.25806201138119    3.96007879470796    0.15921671422412
O         3.65541271600365    7.35320519003554    3.23977754554142
O        -0.22670485275511    4.54953243669336   -0.61559468910050
C         2.93013356764619    1.63697913290669   -0.07525113590016
H         4.01001485626221    1.51447272644307   -0.01539491315375
C         2.19807676710130    1.81883519913708   -1.30608870371288
H         2.64539316350066    1.97796509849061   -2.28050943385310
C         0.87526045022458    1.43152994074585   -1.07188300053602
H         0.08732101472653    1.40618424429994   -1.80803094917028
C         0.75842256646701    1.01229161194245    0.26007477057014
H        -0.14427579013939    0.65303603651600    0.72437771691291
C         2.00224176527691    1.11267825262796    0.87105633038901
H         2.24444127057455    0.78355818305835    1.87095443854163
C         4.49460521438013    5.30197139476595   -0.43898488295769
H         5.42158712383235    5.16837083732082    0.10189371097695
C         4.12753681158455    4.63124810620290   -1.62478819614215
H         4.73207295270468    3.90246784905244   -2.14750244704343
C         2.93350795039659    5.21055164407136   -2.10658083572803
H         2.47518243628307    5.00087374584981   -3.06450151348900
C         2.56648279121861    6.24608629925657   -1.22018053650017
H         1.78334668882598    6.97714746232597   -1.37197977700275
C         3.53116955217616    6.30299119053705   -0.19216518707893
H         3.57857760785184    7.06416080395537    0.57185912950887
C         4.10827076719763    3.77740779614179    2.83431231754258
H         3.49117309380445    2.88402663726515    2.85985930516333
C         5.48957676689185    3.65931292984199    2.76288280714387
H         5.94596223356686    2.68674402909308    2.65421348974237
C         6.27354360970662    4.79367840915739    2.84946560154890
H         7.34939697297217    4.71796206784168    2.79369797301548
C         5.69067730642135    6.04001236092433    3.01634198757888
H         6.32708598923661    6.90844925206779    3.08109237734448
C         4.30918920629074    6.16702411551222    3.09542181727812
C         3.49864466458426    5.02016517096613    3.00052239268397
C         2.02035582764990    5.09911874134161    3.09470908190899
C         1.45218437603077    5.70903691388854    4.20800711677213
H         2.08855277872484    6.15110154829651    4.96023659050632
C         0.07815526176261    5.74451624888159    4.34835617181493
H        -0.37222493475812    6.24247048475446    5.19494190493097
C        -0.71281569724420    5.10790501963009    3.41353583034000
H        -1.78812368893413    5.11074647211746    3.52946959174424
C        -0.14383942476284    4.47445590010137    2.30571902971528
C        -1.06877121777438    3.68058980974294    1.45870005359037
C        -1.95369399875336    2.82972583933296    2.12039495058902
H        -1.89072323833853    2.76351686945904    3.19633336282358
C        -2.88771156018380    2.06953555178513    1.44384836437432
H        -3.55288400747052    1.41669747832514    1.98814086151568
C        -2.96182516853521    2.15518636667185    0.06712048398713
H        -3.68838497669278    1.57578431168796   -0.48184784179671
C        -2.09048581266417    2.98214950693256   -0.61958873435424
H        -2.15674587232736    3.01939352193971   -1.69486965674368
C        -1.13242580781411    3.72655711756136    0.05725776619815
C         1.24781666593103    4.49481503900809    2.07367359634173
C         4.40686715041466    8.54086398993503    3.28268368142852
H         3.67747547169971    9.34422285162519    3.37543770072381
H         4.98815325921837    8.68526218063233    2.36577395666926
H         5.07942917726850    8.56323232856510    4.14655024589916
C        -0.61436141778501    4.95226434213162   -1.92457276895067
H        -1.65652500935334    5.28358447854774   -1.93515374041940
H        -0.47353056559483    4.14476264248123   -2.65029867717727
H         0.02969318408173    5.78780549486341   -2.19384314676197

