92
CSD_code = MUNGAE | q = 0 | S = 0 | Stoichiometry = C47H39BrO2P2Ru | MND = 6
Ru        1.72149497619679    1.78855064434278    6.65000467995300
Br        0.96346123260454    1.65267917353922    4.24430305826349
C         1.93591005636629    3.60006610799883    6.80790276353920
O         2.11003216470243    4.72397963620656    7.00802085782045
O         1.58436242323554   -0.33148554159190    6.73961557323850
C         1.92988327825034   -0.80398352007626    7.83028571944810
C         1.93819971315652   -2.29014459833609    8.05867764654448
H         0.93730385581601   -2.58140709651480    8.39740002787668
H         2.12983438968906   -2.79889560227817    7.11118299442839
C         2.97717861485712   -2.65400541895438    9.11543567348655
H         2.94951177211937   -3.72799827411010    9.30834517668961
H         3.97331686424826   -2.40554453778329    8.73847998812843
C         2.71097846122426   -1.88105615314700   10.40606821529760
H         3.46269704080859   -2.12695511075551   11.15938603488727
H         1.73495615733810   -2.17791816508585   10.80773874045325
C         2.70414141125807   -0.40015552087986   10.15743933545735
C         3.04930446718284    0.52109985185581   11.12403680191751
H         3.34752063593294    0.18549622596415   12.10747479605740
C         3.01676332448928    1.88268584248013   10.83337225145172
H         3.28907737096226    2.59272101130692   11.60180757864037
C         2.65112585216102    2.34122410142313    9.58226352009237
H         2.64496859427620    3.40695135005204    9.39577667278043
C         2.29177183803044    1.45450558698616    8.56913941853716
C         2.32215322149198    0.07830523381591    8.89231717613145
P         3.92641660546637    1.52760604209174    5.98801208374930
C         4.46265434888607    2.27332855588210    4.41382510030972
C         3.83742714302202    3.42986781782747    3.95890374083899
H         3.01558143796240    3.85302662688340    4.52319476024245
C         4.25250641096188    4.02798025685282    2.78385937283613
H         3.75627341153380    4.91948051534324    2.43116192051450
C         5.29541860099471    3.47728399549388    2.05785622740329
H         5.61501485134936    3.93958425699854    1.13564580625897
C         5.92663552843498    2.33081478180663    2.51160846757655
H         6.74100727897685    1.90101126009606    1.94658297431874
C         5.51570203514768    1.72814562129458    3.68628627375734
H         6.00890369118623    0.83177750452621    4.03645181634837
C         5.14843888468803    2.22091153571133    7.14993349465997
C         5.76883729796752    3.43646022061992    6.87812026213257
H         5.58344883226043    3.93667749198966    5.93796573857984
C         6.62070360335482    4.00841723878722    7.80572202811969
H         7.09674837661219    4.95225335073518    7.58360339354985
C         6.86035763752605    3.37804416969142    9.01492866359971
H         7.52618342356364    3.82622367432005    9.73760102798959
C         6.23730399700756    2.17404657352288    9.29825214246087
H         6.41137903684716    1.68079597786365   10.24371483467369
C         5.37974901079530    1.60256524834981    8.37755890853299
H         4.88488810075290    0.67162988764961    8.61684516416195
C         4.42970426595306   -0.20973469475339    5.74076066049625
C         3.62093621277636   -0.95412323746300    4.88131461631657
H         2.78230626334884   -0.48161606801345    4.38577097562008
C         3.88860895720323   -2.29084620135349    4.65591465999119
H         3.25422839541717   -2.85985128931271    3.99218330957717
C         4.96703860483565   -2.89777727831148    5.28037541662206
H         5.17187377527522   -3.94541708370133    5.11406123385645
C         5.79140531297696   -2.15471065911371    6.10828679180537
H         6.64677230241811   -2.61879192974698    6.57872294568474
C         5.53062889457735   -0.81408064701235    6.33755738010054
H         6.19452686896580   -0.24094431824868    6.96881059756256
P        -0.48629733579150    1.90014105122811    7.33358971486536
C        -0.68934131384103    2.64125278440293    8.98588902918554
C        -0.33753072619134    1.91561889662034   10.12251588724697
H        -0.01995117129303    0.88559584998271   10.02724076387195
C        -0.39046199787581    2.50410368894160   11.37136830295488
H        -0.12022765552427    1.92975589086690   12.24574973780578
C        -0.77631419336552    3.82835302994913   11.49931380718325
H        -0.81215377947728    4.28901907019306   12.47552581638697
C        -1.10877310672400    4.56134047039943   10.37263485654536
H        -1.40168159281448    5.59670060495465   10.46766481605901
C        -1.06380458092324    3.97399621974677    9.12097880870467
H        -1.31945901558276    4.55147274965663    8.24335739410743
C        -1.66880563704706    2.87875991240474    6.34877485800266
C        -3.03228292052597    2.60500442944266    6.39402216198994
H        -3.40044875263023    1.78347520933724    6.99268406110381
C        -3.91616829719889    3.38038493870936    5.66668557240325
H        -4.97333897802537    3.16022053642380    5.70040844427138
C        -3.44989762147479    4.43143779577731    4.89414130841941
H        -4.14371085565165    5.02956541794896    4.32209269633199
C        -2.09441714945999    4.71123335816643    4.85147953136418
H        -1.72677083281677    5.52687779989301    4.24725601507105
C        -1.20596664646662    3.93873838499619    5.57623223941070
H        -0.14466988340967    4.14947390803078    5.53369843736925
C        -1.35900926040819    0.29983124258633    7.43840630099132
C        -2.15242576369735   -0.08498483166918    8.51526659272083
H        -2.29180563997809    0.58001904655007    9.35603043284500
C        -2.77912977082399   -1.31891757218338    8.50609971721025
H        -3.39239146162815   -1.61118997944805    9.34675244176000
C        -2.62821199077499   -2.17321589091789    7.42618262888731
H        -3.11536214061975   -3.13753733775305    7.42892013104630
C        -1.86401625958273   -1.78184087644925    6.33894866772935
H        -1.75856463491241   -2.43525460256805    5.48560539715954
C        -1.23581047048535   -0.55037273583013    6.34056881570735
H        -0.65325567839624   -0.24521288418587    5.48154712189579

