92
CSD_code = MUNGEI | q = 0 | S = 0 | Stoichiometry = C47H39IO2P2Ru | MND = 6
Ru       10.85206846924711    3.23340634761511    1.19592874454776
I        11.63573137813271    3.37970607565387    3.79320347381811
C        10.62508296937163    1.42349801412187    1.03175890323221
O        10.43706199427970    0.30604253029535    0.80726028183508
O        10.99720952182802    5.35120724045328    1.07919454522682
C        10.68183821593520    5.81330774654792   -0.02508441552612
C        10.69814194200105    7.29538786160782   -0.27628644654369
H        11.70805292388401    7.56685539401736   -0.60514582450818
H        10.49941405632372    7.82350793070228    0.65904747421554
C         9.68082177575291    7.65482545701187   -1.35537448207156
H         8.67545386936989    7.42347303771554   -0.99175353174561
H         9.72396655641343    8.72531839882404   -1.56415327652272
C         9.96007250345991    6.85902254330510   -2.62936529683537
H        10.94731969395533    7.13734683764312   -3.01696502619690
H         9.22578629392274    7.10314685445018   -3.40021188478655
C         9.94352360448890    5.38214298978714   -2.35869681350954
C         9.60031517021439    4.44974334534676   -3.31508001408842
H         9.31923636577609    4.77264321695962   -4.30773378081495
C         9.61250089879113    3.09299556506473   -3.00188082933185
H         9.34100208108724    2.37312936383570   -3.76138743658355
C         9.95678152298244    2.65007691368395   -1.73919522135116
H         9.94750568636749    1.58656971418880   -1.53919618843958
C        10.31170775028570    3.54893210978706   -0.73517880428150
C        10.30076981221977    4.91952144849383   -1.08074779603780
P         8.62011908626567    3.49155653085071    1.77472657339922
C         8.01238104175184    2.74542467457953    3.32315667583011
C         8.57652728388450    1.54827699503225    3.75530868704747
H         9.38658477882742    1.10356037481506    3.18999228917344
C         8.12006196895473    0.93860352031359    4.90812446162667
H         8.56939196777926    0.01529447003515    5.24139968048185
C         7.09728661883647    1.52035331719548    5.63902854556299
H         6.74625489947122    1.05024715618280    6.54555117571649
C         6.52977275597024    2.70854677219223    5.21102123852930
H         5.73338328646440    3.16469002470945    5.78084926867255
C         6.98119655333192    3.32202110171291    4.05628153878227
H         6.53599020443219    4.25175451151750    3.73077984660827
C         7.47438104099321    2.76170929636381    0.55715784298167
C         6.92029906173330    1.50410448959480    0.77480567693151
H         7.10496305379762    0.98754650961227    1.70629561288493
C         6.13303516178995    0.91074907018793   -0.19550835656815
H         5.70862907862244   -0.06607101516986   -0.01540067101992
C         5.89129991986103    1.56237861974645   -1.39291379932965
H         5.27553880504400    1.09762956047949   -2.14874159883297
C         6.44699111091923    2.81016973386200   -1.62127557404232
H         6.27044516032064    3.32157660380189   -2.55656541614250
C         7.24143429770778    3.40282080374544   -0.65847130494644
H         7.68436013713886    4.37004106554194   -0.85423298906424
C         8.04929835798341    5.21575955622409    1.96497787958709
C         8.83842053075124    6.04372219478614    2.76250130070557
H         9.72314795280747    5.64750220106418    3.24215538144619
C         8.49375418305894    7.36878243628029    2.95153437068518
H         9.11485429984436    8.00109543076680    3.56898943072335
C         7.35390403086476    7.88096082008249    2.35324517036097
H         7.08754689277011    8.91876851500894    2.49082425774843
C         6.54592141528012    7.05383571168746    1.59094654086753
H         5.64183035970368    7.44230966925475    1.14397840774226
C         6.88407226321580    5.72520838605128    1.39981495298762
H         6.23155426279003    5.08596211134249    0.82241271983673
P        13.05667180783243    3.08807542675318    0.49476854413908
C        13.21442810069901    2.29660903004691   -1.14069338936730
C        12.91015047241629    3.01552404824115   -2.29525075112852
H        12.65550262356792    4.06520703000729   -2.22565414121533
C        12.93153864079261    2.39656483794808   -3.53016577013274
H        12.69957723189430    2.96649340422915   -4.41833457604692
C        13.23631902624098    1.04879242247448   -3.62641430731919
H        13.24701067484249    0.56448813732813   -4.59170555443144
C        13.52101973880515    0.32347720561660   -2.48193417906046
H        13.75142547437848   -0.72952233038376   -2.55169210077093
C        13.50940404963066    0.94130712913452   -1.24426114794169
H        13.73090935875560    0.36902331793977   -0.35401658999901
C        14.24202973387324    2.11069703971908    1.47797911634972
C        15.59649054406927    2.42318300504615    1.51244087578176
H        15.97112028577229    3.28267037040005    0.97483216888855
C        16.46722917730787    1.63750209938197    2.24593446383669
H        17.51732020553980    1.88945528303322    2.27456566857750
C        15.99781330964258    0.53836021060441    2.94487274244658
H        16.68105284754189   -0.06681564011744    3.52190750548841
C        14.65019529868012    0.22053812084503    2.91013301188403
H        14.27806414698179   -0.63127391260068    3.45920381894559
C        13.77575445840426    1.00341875877575    2.18098805276955
H        12.71898182321043    0.76626501512879    2.16653719808789
C        13.96132462660300    4.66352436618078    0.30770850083962
C        14.81022704552576    4.93915564486158   -0.76163601503097
H        14.96615278832848    4.20311329703851   -1.53781959248754
C        15.46938468403866    6.15377482772035   -0.82744473544801
H        16.12357780956168    6.36012222223592   -1.66258166101655
C        15.29949236674234    7.09855515910420    0.17159681574010
H        15.81215030322004    8.04748490397074    0.11018102175016
C        14.48406911156859    6.81602051061830    1.25480474520895
H        14.36460297126349    7.53849189604054    2.04860540466869
C        13.82276343102047    5.60373092633507    1.32660322485617
H        13.20084895221185    5.38648807980648    2.18363546043844

