45
CSD_code = MUNLEO | q = 0 | S = 0 | Stoichiometry = C18H19N5S2Zn | MND = 5
Zn       -3.92386072573921    2.71213384893286   10.21385407459934
N        -3.28970010942971    1.62899184025017   12.01614697145272
N        -2.68396262961039    1.21186731749463    9.50766130490461
N        -4.15276399569025    2.94703637096926    7.97966248364766
C        -3.60998376297047    1.91026429546909   13.26447247015240
H        -4.52316438675590    2.47276719871549   13.39973785731363
C        -2.82968647317522    1.51625078752661   14.34410856865521
H        -3.12314685686115    1.77392326563271   15.34907319424812
C        -1.66936117147469    0.79976573483596   14.09802080095197
H        -1.03024376767091    0.48694657512325   14.90992214790703
C        -1.33570787247915    0.49533658827038   12.78835011999043
H        -0.43628797465870   -0.05192363799834   12.55251151444319
C        -2.17725695527860    0.93311521443873   11.76992338682053
C        -1.88277705571972    0.69604518806543   10.35149246298944
C        -0.68873995449231   -0.09876813892160    9.98721961201377
C        -0.73677988548532   -1.48845687459293   10.03122710471167
H        -1.64606514231042   -1.98162765199525   10.34413576648361
C         0.37516075178994   -2.22969414601366    9.67247537289596
H         0.33291820290210   -3.30803400545378    9.70701985730573
C         1.53866066158163   -1.59063523288233    9.27724027302895
H         2.40641907233764   -2.17134175816645    9.00321548143896
C         1.59012780870350   -0.20698164130224    9.23992405991616
H         2.49836324824992    0.29442403699210    8.94206196296996
C         0.47972110975200    0.54139802104265    9.58768694736427
H         0.52181274757455    1.62032157829273    9.58137428215031
C        -2.50570535458901    1.11091244578059    8.09115957052927
H        -2.32138500216110    0.07493674691134    7.78050390593394
H        -1.63431180939006    1.70322404410997    7.79044362100193
C        -3.77490036006221    1.64714166478357    7.42758218191674
H        -3.62986073977168    1.70193325086875    6.33824782786477
H        -4.58821097751745    0.94853857271276    7.63765165165833
C        -3.27510754129385    3.99826490605650    7.47261480128801
H        -2.24897918192510    3.82152328582997    7.78315758671259
H        -3.58567589780418    4.95279341340733    7.89057428777493
H        -3.31588172668138    4.05559928718355    6.37686550467665
C        -5.52587360677690    3.26172391906236    7.59296792878879
H        -5.62990628770131    3.31307418549262    6.50169077983167
H        -5.80905598471337    4.21967382671827    8.02240249426506
H        -6.20429753558981    2.50619797770221    7.98195900841614
S        -8.29939307965754    2.79721417916167   11.56883078731794
C        -6.81273028740869    2.81883085450665   11.06236650880702
N        -5.70121104250038    2.82937879399458   10.66542118929969
S         0.05168489248560    3.78466859979775   11.36024180693100
C        -1.45509284690493    3.91142533977864   10.90770557532354
N        -2.57520051312213    3.98551993141395   10.54959490330225

