24
CSD_code = MUNSOD | q = 0 | S = 0 | Stoichiometry = C11H8FeO4 | MND = 7
Fe        2.02758325183267    0.80991100113704   19.95698519202124
O         3.90541286083859    4.60050365077787   20.17163693051871
O         0.50464597976096    2.77599961171807   18.38772402663591
O         0.39604211106191    0.68214380987146   22.36356857937653
O         0.67285256882466   -1.65611274326093   19.22946838446260
C         3.83101565984585    3.46288578009195   19.73868761584972
C         4.17992428410811    3.16024979572152   18.34153212928599
C         3.98795720573004    1.95581052699836   17.77260173324732
C         3.63011850747637    0.69848167898849   18.40408778165077
C         4.14538752726482    0.28060465481820   19.67960708738688
C         4.03295977686737    1.11939112223540   20.78459298304063
C         3.36483786707263    2.38668158205626   20.65753088994457
C         4.61690924585192    4.34493012303423   17.53792199485380
C         1.09836401547450    2.00943103022324   18.98660328057033
C         1.07672601184204    0.72619872036859   21.44527331362786
C         1.24268924974302   -0.70514353889624   19.51655915294190
H         4.13245772439743    1.88664717804116   16.69955815127253
H         3.56756117351837   -0.11062956287039   17.67730604388624
H         4.57443271186689   -0.71038543890724   19.78727535468256
H         4.39064842468556    0.79054703931829   21.75539396182972
H         3.14147301213138    2.85436358970210   21.61952680454861
H         4.87111798042170    4.06286450173320   16.52000363199667
H         3.82104308428691    5.08884502266754   17.51844282366620
H         5.47743976509636    4.81438086443164   18.01191215270261

