25
CSD_code = MUNSUJ | q = 0 | S = 0 | Stoichiometry = C11H8FeO5 | MND = 7
Fe        2.89017013635205   -7.59612644229490   14.16584343133157
O        -0.95121487200142   -7.40669325183271   12.43742686478748
O        -1.10678698172060   -4.94991814179834   13.22230117063259
O         0.85951044229804   -7.56320212512216   16.29852376865995
O         3.54232279711810  -10.43276313216946   14.07487607779160
O         5.31311108095252   -7.36621886966434   15.75416548382810
C         0.10530826655734   -6.88231902063042   12.72914768224747
C         0.13579535565512   -5.48569952393449   13.24170329274312
C         1.22321378169838   -4.89774218106071   13.78698438936340
C         2.59159931156910   -5.37404722266983   13.76116834957057
C         3.19601411099144   -6.02143077913977   12.63392621896636
C         2.58352806569073   -7.12501467198593   12.04608989379765
C         1.36313031729723   -7.65423421499385   12.59308866618909
C        -1.32129291538111   -3.67766921606079   13.77686470958760
C         1.64102508258338   -7.56025400807005   15.46836869363840
C         3.29681420141314   -9.31534230400996   14.05870704372474
C         4.37363787507420   -7.43418949548821   15.10152116927803
H         1.09582540678623   -3.95542641506482   14.30313763838197
H         3.26015605563805   -4.68680335036033   14.27705739084449
H         4.16505439721201   -5.68512986054772   12.27960748842416
H         3.05729194917004   -7.62553842274148   11.20754997647721
H         1.09755379486137   -8.63294428428640   12.18718383474637
H        -1.10855995729059   -3.66636819572138   14.85111161259664
H        -0.71494461140619   -2.91406169042721   13.27785215664402
H        -2.37646309111855   -3.46316317992465   13.61719299574747

