33
CSD_code = MUNTAQ | q = 0 | S = 0 | Stoichiometry = C16H12FeO4 | MND = 7
Fe       -1.43067746017348    2.67658212876040    4.64730130357606
O        -4.42586124186737    1.95390150995760    2.40775757639328
O        -1.55820163199919    0.36928321241493    2.83983180813776
O        -0.01486945395919    4.51594117809886    2.89734627741629
O         1.12866037676996    2.25050086424488    5.96392466426260
C        -4.53566662139412    2.34609422384216    3.77043886711170
C        -4.57136672691553    1.11291413843017    4.62376557289697
C        -3.73188786814994    0.81213136152008    5.61089568173065
C        -2.67694253980386    1.64816188399797    6.17857559276516
C        -2.75312453916739    3.06900818105233    6.35287595515558
C        -3.10412853203117    3.90033312254109    5.28678859024187
C        -3.37773695841312    3.31137891565882    4.00610516818439
C        -5.79857801027562    3.17736084230886    4.00572055134810
C        -6.43264575020220    3.80587724212944    2.94373727727676
C        -7.55877172597845    4.58018652642710    3.16150346154054
C        -8.05709595680170    4.73594640807685    4.44290333456196
C        -7.42250049461822    4.11637435628558    5.50725059089988
C        -6.29773044868377    3.34182242161767    5.29173289593628
C        -1.50668702561132    1.26170927076663    3.54702909932972
C        -0.59291203457326    3.82583357662220    3.60534321805498
C         0.10231775621605    2.43044373935457    5.48516304285941
H        -5.10171829334671    1.29279243231981    2.21916181884962
H        -5.32019672196025    0.39121079977714    4.32085593206288
H        -3.82345378799329   -0.16326907252439    6.07396837664283
H        -2.17916052857064    1.14350756603009    7.00577781262704
H        -2.44650787866389    3.50618968952690    7.29878074431344
H        -3.08743560772881    4.97879244433407    5.41202416278825
H        -3.41788230029860    4.03848671598961    3.19311939298978
H        -6.03483676296641    3.68712027113974    1.94638301817885
H        -8.04522544884450    5.06459404609246    2.32756296676660
H        -8.93571148908817    5.34020950526540    4.61371626001127
H        -7.80644164588203    4.23659217320858    6.50975257668972
H        -5.80182264702386    2.86008832473218    6.12230640839989

