38
CSD_code = MUNTIY | q = 0 | S = 0 | Stoichiometry = C15H18FeO4 | MND = 7
Fe        1.17380361869115    2.39606495975444    1.81223262750080
O         3.68745502865484    2.09612554951547    4.60969931270606
O         4.04012558093959    2.62036988447610    1.24129030186140
O         0.20456419374036    3.18396597235931   -0.80828799699268
O         0.62989755100644   -0.32380438738920    0.92747938591297
C         2.61468304075993    2.63455741064666    4.43216028113937
C         2.35748093507056    4.08541542893024    4.84166093216432
C         2.28441611952524    4.94098235488462    3.55372600479047
C         1.19272205805765    4.38562234818334    2.63795067331495
C         0.01950879989730    3.70150919655207    3.11793487233127
C         0.15462847526988    2.46256379089736    3.75130029833076
C         1.46031764667287    1.89638130080879    3.89561586374200
C         2.06068059024476    6.48240004606074    3.78632954060748
C         3.35947134520787    7.15461658342094    4.25330368675693
C         0.94396889670951    6.73283611369025    4.80086865021368
C         1.68659168573210    7.20238272578765    2.47669143927739
C         3.43493971120072    4.45888648788280    5.85865819160995
C         2.93091298562854    2.51740811185116    1.47796719633751
C         0.55747609718002    2.89854002440764    0.24345403057652
C         0.80343260567983    0.73921007333441    1.31296416871564
H         1.37833167953846    4.11882471817997    5.33124623895121
H         3.24902373457878    4.85606017365994    3.04107606909438
H         0.94003382371316    5.12292710653731    1.88260183423483
H        -0.97516513068124    4.07659261896138    2.88928199474177
H        -0.72525299080522    1.89875575436788    4.04556909868942
H         1.49971743180733    0.84508541653916    4.17857307577140
H         3.68259449829424    6.81993778450873    5.22884868981319
H         4.15914829353751    6.96572859040353    3.54056299860590
H         3.20940725274860    8.23101682871811    4.31274618595961
H         0.71580893017141    7.79582226413766    4.84218862041960
H         0.03855674669811    6.20170159644636    4.51377800425945
H         1.23066159687849    6.41504928349576    5.79902519823277
H         0.64420966539851    7.05538266317802    2.20500025776458
H         2.32323159532685    6.88067098095600    1.65518646090462
H         1.82932114534960    8.27326098356169    2.60587951673336
H         3.15048400743262    5.31908850607546    6.45679465680772
H         3.57826809898248    3.61869994540718    6.53618443743688
H         4.38514265515793    4.64356080881020    5.36635720068504

