64
CSD_code = MUNZOL | q = 0 | S = 0 | Stoichiometry = C29H30Cl2NPRu | MND = 9
C         0.90746892772096   11.99862675570825    5.73579786225151
H         0.28139533447961   11.10702060306894    5.66363135386889
C         0.80701119006374   12.74784392511486    6.96983091962591
C         1.51501274132716   13.93895265251990    7.15775171156890
H         2.12142077783874   14.31318247019800    6.34729283655499
C         1.42900303631559   14.62200145927828    8.35333728534971
H         1.97772911368604   15.54240073629908    8.49191141675676
C         0.63825654383862   14.12802330975709    9.38071224535719
H         0.57459385002016   14.66300728732821   10.31655402160147
C        -0.06934377031127   12.94865463243800    9.20600397176583
H        -0.68280682426285   12.56492678804081   10.00732972141130
C         0.01009054929517   12.26288883566386    8.00964777539467
H        -0.53251000610690   11.33949424055145    7.87097833994545
C         2.45306955812468   12.60715227201183    2.21855525206378
C         2.61124523328160   12.12552236253944    0.92281790432714
H         2.46541964688707   11.06916845182339    0.73652548685542
C         2.96090249505816   12.99314533861247   -0.09447205901009
H         3.08591177629474   12.62312604903761   -1.10126271313329
C         3.15693191747905   14.33830257358327    0.18008516299605
H         3.43229292201320   15.01615352888278   -0.61482156904667
C         3.00263086221505   14.81649720280633    1.47141616049415
H         3.15568098750213   15.86595212006067    1.68027675580707
C         2.65458911948833   13.95232412052949    2.49470889915351
H         2.52782049307068   14.30803648732750    3.50674387621960
C         0.55893332026070   10.61104156699274    2.90904271395488
C         0.40828619104780    9.24390303653286    2.72707709961725
H         1.23850342041156    8.57998938785811    2.91961610415014
C        -0.80871853357882    8.74820354797752    2.28963906318102
H        -0.92918746402396    7.68520104222767    2.14463145717189
C        -1.86617784533286    9.60648146507124    2.03972883552248
H        -2.81351678432615    9.21305816618469    1.70073244873800
C        -1.71408621199830   10.97250216844929    2.22302018644653
H        -2.53910672036243   11.64233740566558    2.02775086101770
C        -0.50350555366402   11.47695065043296    2.65636116941392
H        -0.36809991710263   12.54137305271681    2.80389881717500
C         4.24612783584873   11.17466731996020    7.50457814613580
H         3.85230066477407   12.17536029074604    7.67091016833024
H         4.96978548422456   10.93819224377136    8.28471397175949
H         3.41980060632483   10.46462923373075    7.58330906549369
C         4.87679802516424   11.05953164095972    6.15052861424342
C         5.55191012449668    9.86043030628872    5.77820980086673
H         5.62140723309120    9.05071682312799    6.49758376508905
C         6.15951153421295    9.74107706099081    4.52851267224693
H         6.70579899268302    8.83780363548679    4.27579139818029
C         6.11120645970497   10.80901370968020    3.58311172256843
C         5.47601674637840   12.00392117175153    3.96239108415252
H         5.49455467211523   12.86350483246852    3.30285840130388
C         4.86382896426529   12.12568992134763    5.23640942349845
H         4.42514870564500   13.07345921709004    5.52757190721895
C         6.86528110359051   10.68803162294907    2.28017276563492
H         7.03655088751722    9.62320867436496    2.08657966932950
C         8.22362315727923   11.38218893987595    2.43325248182163
H         8.80608582838732   11.26180586589799    1.52335098957424
H         8.78561239284116   10.95571642353592    3.26215439666473
H         8.08886226025738   12.44607139999236    2.61885371954813
C         6.08632312513582   11.25495500717132    1.09465632713014
H         5.10553491351681   10.78650791715479    1.04440417841348
H         6.61836224951296   11.04220381933216    0.17074838452967
H         5.95752821582421   12.33265194899792    1.17243268788390
N         1.71726998943074   12.35089974577039    4.80656488666264
P         2.09088021621637   11.39244235003902    3.50889545730874
Cl        3.72538746268477    8.89395201654990    2.35421224720916
Cl        2.31319449134206    9.14839945611273    5.41500253218652
Ru        3.96686728093597   10.32632171155238    4.20708776045457

