60
CSD_code = MUNZIF | q = 0 | S = 0 | Stoichiometry = C25H29Cl2N2PRu | MND = 9
C         0.52478215950993    3.28390164791684    9.38551592121839
C         2.82511918940015    4.07163216604840    9.38547521552136
H         2.96627474981699    2.98655764067903    9.38546408692297
C         3.48448786358670    4.61907069101802   10.65230636258204
H         3.45617730515713    5.70469940247259   10.68770903917465
H         4.52505210488339    4.30653052100534   10.68092351710747
H         2.98427897060540    4.22986673975885   11.53612661987146
C         0.93932746186188    5.70800149061961    9.38553159992504
H         1.85209150530026    6.30806000125358    9.38550578067531
C         0.14371688444392    6.05141089178220    8.12955239179165
H         0.66756325684651    5.72113583966952    7.23579898540158
H         0.00314903682007    7.12769322679705    8.07252588298253
H        -0.83080464786944    5.57697261788309    8.16801156079772
C         1.08701978410440    1.89175645746801    9.38547206297544
C         1.31117907325899    1.22677664761966   10.62449335284789
H         1.25222237071719    1.77437042686738   11.55842582694908
C         1.60887622739456   -0.14669155883548   10.60401321400994
H         1.76523066253889   -0.67086368629885   11.54021695673392
C         1.76884144372964   -0.83699343682909    9.38541986276181
H         2.03881461758112   -1.88480978781861    9.38539903192218
C        -2.82544501872205    2.29260918015547    7.95529040330857
C        -3.79215685555029    1.32760424932310    7.68620496824648
H        -3.86830719032231    0.45505987486697    8.31655808043052
C        -4.61720314992843    1.46734927472052    6.58658002969520
H        -5.36111371666231    0.71366374578739    6.37649724721708
C        -4.48100652505867    2.56085226004275    5.74599767848785
H        -5.12362769332277    2.66434133575347    4.88383549623446
C        -3.51022747538111    3.51368502903284    6.00331349682676
H        -3.39276399742227    4.36125048807203    5.34302997356510
C        -2.68108627988302    3.37837462816012    7.10218608140414
H        -1.91446416157939    4.11040592043612    7.30076222675557
N        -0.76552836176820    3.42437121153473    9.38555665663662
N         1.38324081640693    4.31201678979036    9.38550912955085
P        -1.73054382672749    2.05947550111460    9.38551227119806
Cl       -1.51634434290779   -0.88287652355509    7.76597322946797
Ru       -0.30795469276602    0.28270714124238    9.38565371838111
C         3.48443289468071    4.61908718209153    8.11862364177280
H         3.45613649357939    5.70471694534604    8.08324490340721
H         4.52499095826131    4.30653194442712    8.08994935959567
H         2.98417398237558    4.22990731106869    7.23482133353990
C         0.14379607718770    6.05139414019537   10.64156496591910
H         0.66772250306286    5.72115981603616   11.53528670101114
H         0.00317824059964    7.12767047486515   10.69858206694791
H        -0.83070416046263    5.57690610355707   10.60318287629906
C         1.31099502924034    1.22678018743425    8.14641252517751
H         1.25201750039773    1.77440995222109    7.21249971339358
C         1.60861174347281   -0.14670731802142    8.16683839745189
H         1.76494162641126   -0.67085720784570    7.23061678100106
C        -2.82546720120328    2.29258721385531   10.81572690800144
C        -3.79211194357656    1.32751995357971   11.08484000660064
H        -3.86817051558243    0.45493064734876   10.45453269916736
C        -4.61723970943159    1.46728855904261   12.18440762446472
H        -5.36110772794199    0.71356331785461   12.39450625897566
C        -4.48116858623521    2.56085854768333   13.02492653000298
H        -5.12382386467130    2.66434463704651   13.88706532242544
C        -3.51045024695925    3.51374803395321   12.76759225943560
H        -3.39307835634519    4.36135986265548   13.42783337849214
C        -2.68124131395338    3.37842520922410   11.66876789632766
H        -1.91468808715853    4.11052050331936   11.47016217388297
Cl       -1.51671288384039   -0.88291406249705   11.00566771712762

