107
CSD_code = MUPDAE | q = 0 | S = 0 | Stoichiometry = C46H56AuO2PSi | MND = 2
Au        5.46434533897479   19.23290747154061    3.79919687279940
Si        9.19478886224394   18.60790826603106    3.04175284879154
P         4.12013848828211   20.81604838429032    4.80121903812000
O         4.23617679247342   17.23191744749468    2.23797696435196
O         7.42507874633839   14.24016020011523    2.36457255579097
C         2.91986639881501   20.37976124374072    6.11823973580644
C         2.13577910912517   21.35988024168448    6.72847337082118
H         2.30345558651539   22.39862943351202    6.49861181316624
C         1.14261986178286   21.03335857662393    7.63079348916644
H         0.55551270357639   21.81534099131370    8.08993573680876
C         0.89569630325153   19.70418980213404    7.93126533482038
H         0.10842620367025   19.43706806063954    8.62023411883622
C         1.67548839824489   18.72336795994508    7.35234627331757
H         1.50912705304761   17.68365860506438    7.59588505439942
C         2.70021920068273   19.04098475226477    6.46243866080995
C         3.52671972089469   17.91344834534554    5.98791906858200
C         4.82144295931028   17.75580328565808    6.47381453967333
H         5.23179759367298   18.50209636235644    7.14090304942482
C         5.56077342341427   16.63527296760556    6.14125066407417
H         6.55739580970955   16.51559115458561    6.53761991815349
C         5.02126301409757   15.66773489980578    5.31098294889211
H         5.60723611768265   14.80091508374013    5.04281803850617
C         3.73062207458919   15.81482784881045    4.83258110828158
H         3.29804297655473   15.06031131874821    4.19423110174107
C         2.98288463064186   16.92559271015118    5.17603369577460
H         1.97463714341147   17.03592208533801    4.80438343562953
C         2.94494960036051   21.36839978328635    3.42677776256953
C         3.80081980195652   21.89245427004295    2.27430815895987
H         3.19258883222851   21.98966091425205    1.37588033631625
H         4.61762516957746   21.20191121380842    2.06063114893753
H         4.22107141367311   22.87027182666205    2.50297637792498
C         1.86481555516202   22.38937373218123    3.77836480626577
H         1.28953700281187   22.60467880978678    2.87787051694479
H         2.27789409739725   23.32690046809785    4.13768644045168
H         1.17625799878690   21.99460899461014    4.52168841884708
C         2.25372824893092   20.06726331867715    3.00268118280892
H         1.61157112725185   20.25170292868737    2.14254856407242
H         1.63305993558319   19.68125438007712    3.81119222036083
H         2.97543878225184   19.29762379124435    2.72943607803200
C         5.14170108102562   22.24770041741462    5.52184850859029
C         6.41331253862606   22.31289205872010    4.67268988700341
H         7.10784619931990   23.03792027590305    5.09487390145757
H         6.19666528301856   22.61274448340071    3.65068384621370
H         6.91038053948523   21.34558308970014    4.63679412427326
C         4.54418677517286   23.65260010834353    5.56540196240771
H         5.29123345977529   24.32905033519703    5.98179574047172
H         3.66255641568933   23.72251576017723    6.19541055094069
H         4.30130445160065   24.00844862477586    4.56698659530779
C         5.52324439095614   21.78466653198938    6.92995710039616
H         6.28653921150862   22.44080162360350    7.34565791846420
H         5.93204323499595   20.77472025840223    6.89012577731098
H         4.66555658504479   21.78712291861559    7.60032824247812
C         6.45720034928971   17.79311329756793    2.69306702538589
C         5.41570430073724   16.93645011258365    2.11988863397710
C         5.80118243976933   15.67561515741214    1.32471779434993
C         5.84070746241730   16.08056334666464   -0.16337375646384
H         6.10473755495521   15.19808676302871   -0.75298100264729
H         4.83798007175444   16.39909656625017   -0.45849433198215
C         6.84770985313557   17.19221674133458   -0.42888788605494
H         6.52443487554999   18.10492756543124    0.07637851707299
H         6.89217551160642   17.40284558348847   -1.49982059786657
C         8.22457858778658   16.78288896785158    0.07527134379614
H         8.93343518249998   17.60729631559112   -0.03302471677549
H         8.59383994697245   15.93933897998878   -0.51381389368647
C         8.17560695841011   16.36153048308055    1.55071250045986
H         9.16588188212110   16.00892731252701    1.84960480520846
C         7.75283646217453   17.52834290819779    2.43105367741193
C         7.17346524777227   15.27082980404285    1.78263747802577
C         4.77096888152455   14.56834292885357    1.53917960875665
H         4.89671130109050   14.13693846531645    2.52912413622436
H         4.90765399373365   13.77856704085712    0.80342865967332
H         3.76687694976244   14.97567623738689    1.44867848153744
C        10.74703047927404   18.23043844959703    1.99995604409673
C        11.14277504379126   19.10720288434727    0.99195288254326
H        10.57508031175156   20.01182666823910    0.82805332966157
C        12.24368823648950   18.84413643623117    0.19730818004615
H        12.52698633833553   19.54176131342803   -0.57812405144423
C        12.98085465371234   17.68881851250670    0.39257818978593
H        13.84095645904680   17.47952799373815   -0.22679842709344
C        12.60669873951590   16.80350703973989    1.38848183327415
H        13.17498701184361   15.89840212248706    1.54955378335582
C        11.50394667888465   17.07484603040189    2.17811458436385
H        11.23133965457549   16.36796481744051    2.94813625181486
C         8.82005447086573   20.43062383370046    2.64529308066778
C         9.55658192373406   21.46977698327034    3.20447091059584
H        10.31777075613130   21.24771984308454    3.93726869863206
C         9.34918409001941   22.78525836456158    2.82928548694195
H         9.93796691096100   23.57378191304732    3.27666652979539
C         8.39781456480462   23.09108628102498    1.87171542916298
H         8.23887365436708   24.11664895129886    1.57014095418867
C         7.65751035711617   22.07128876558467    1.29761058595839
H         6.91798622238655   22.29916020958055    0.54240757338143
C         7.87078795006985   20.76017964180959    1.68257245952474
H         7.29638423906843   19.97050292074064    1.22391681062050
C         9.52596147706422   18.26148271987135    4.91864122072557
C        10.96656444227869   18.59032677308054    5.31483131516658
H        11.13230143762628   18.34561637432306    6.36422704931995
H        11.17951367323932   19.64793740910866    5.18018773307180
H        11.67893275035548   18.02700177722831    4.71795660440239
C         8.58051661706183   19.09586158630914    5.78310694206603
H         8.72559068626198   18.86389912650674    6.83873091166662
H         7.54423797377395   18.88533679085270    5.52071296830930
H         8.76084728920113   20.15909926540144    5.64140109174891
C         9.26245719531672   16.78270614600490    5.21058805283384
H         9.35807134254669   16.58347371958534    6.27841911281336
H         9.97178973487338   16.14387658492552    4.69157918256958
H         8.26220656381683   16.49935874783555    4.89203461602447

