59
CSD_code = MUPDUX | q = 0 | S = 0 | Stoichiometry = C26H24Br2N4PdS2 | MND = 4
Pd        7.29969600695306    9.11634048666930    8.52227830197520
Br        9.08017180064971    7.48704718481782    8.30967013263091
S         7.41353843148137   13.22120765821925   10.21529306207655
N         5.13705230283402   10.75413538399933    7.36950950619562
N         5.35026701933872   11.20236269718581    9.48795330119175
C         5.84421786528413   10.46212595316826    8.47585975663683
C         4.19582593876232   11.71766326078522    7.65728931362746
C         3.25691701008444   12.36785201758821    6.87370609113422
H         3.14933396864139   12.14674252968527    5.82380608708734
C         2.46642670823770   13.31575626159402    7.49744127612971
H         1.72324424573900   13.84487151880715    6.92095988034002
C         2.60432139710882   13.60598944843276    8.85298439523257
H         1.96570158881356   14.35391110259833    9.29707055576787
C         3.53856751687528   12.96039991247673    9.64257856535015
H         3.64575759244676   13.19188809518725   10.69062826652458
C         4.33424395811200   12.01088300107801    9.02469469740642
C         5.25660522145348   10.06309474208240    6.11211890352033
H         5.58229370372224   10.74323858322227    5.32199127869127
H         4.29329269312531    9.62735803810992    5.84071381300740
H         5.98602339018878    9.24398819254030    6.22643233369497
C         5.74949315407256   11.05216873139726   10.86230228528701
H         6.29120825466576   10.08762925940879   10.93237038413100
H         4.85510823857999   10.97525326506261   11.49154654992758
C         6.61712620090306   12.17221677392495   11.34376126128786
C         6.94035160290437   12.48812015145861   12.62754137989635
H         6.55461874947884   11.96136619567123   13.48199286119949
C         7.83954427590360   13.57565960272620   12.71542671879670
H         8.20956490677022   13.96928393255249   13.64476340995222
C         8.18220259694492   14.06724287183141   11.49925113270124
H         8.83876380799573   14.88066027302301   11.26401981255948
Br        5.52009224597259    7.48659419213451    8.73423929674173
S         7.18651497895319   13.22169648128348    6.82879468992175
N         9.46247168265347   10.75420938510333    9.67448997492636
N         9.24934410039895   11.20229574960460    7.55601707005084
C         8.75538599270476   10.46206543657926    8.56813047311831
C        10.40381069024919   11.71761092650159    9.38664923689369
C        11.34267420680497   12.36791364335276   10.17020447054134
H        11.45026928426890   12.14689383802599   11.22012246293296
C        12.13321116251095   13.31573947190668    9.54640987376317
H        12.87627709830334   13.84499844916000   10.12291305742274
C        11.99537767799015   13.60588228379087    8.19084427487374
H        12.63388359654131   14.35393505664565    7.74679010305861
C        11.06110868047873   12.96027053820974    7.40128436652115
H        10.95392416906948   13.19166340432697    6.35321281984195
C        10.26545763796059   12.01075201625727    8.01922073858178
C         9.34287348705075   10.06319085709455   10.93187776940163
H         9.01716548668170   10.74331642106633   11.72200877508036
H        10.30618292713787    9.62744049957258   11.20325618228649
H         8.61344870690330    9.24409869889671   10.81751703299450
C         8.84990251865083   11.05219722954630    6.18171705629098
H         8.30817622354177   10.08765786156749    6.11176898772899
H         9.74418429978096   10.97522952506163    5.55232530836357
C         7.98217478885969   12.17212910526759    5.70023352003470
C         7.65877975423930   12.48787642250803    4.41646240750189
H         8.04458737999732   11.96117965730870    3.56196364768786
C         6.76043316080839   13.57607043184295    4.32856464478189
H         6.39035103777212   13.96969122298830    3.39919321960477
C         6.41724337720941   14.06723077974720    5.54475673099242
H         5.76071349843654   14.88061328934803    5.78017649409720

