105
CSD_code = MUPDEI | q = 0 | S = 0 | Stoichiometry = C48H52AuO2PSi | MND = 2
Au        3.57530309925369    5.24371053468070   10.61392108681385
P         3.51110164112893    3.62903801698503   12.24035990324175
Si        1.01212816188020    6.54588765127180    8.26615102408020
O         4.77245274971405    6.76650163956677    5.35110838038025
O         6.02110672724841    5.97978885068961    9.31619551452521
C         4.20457889273514    3.91590326876325   13.91324445560610
C         4.04656014548545    2.97998567400023   14.93651023358021
H         3.44052293568493    2.10530692964762   14.77143892606897
C         4.65344295370125    3.14177425979131   16.16621335662681
H         4.50801895975697    2.40094425028042   16.93878247967024
C         5.45671744848824    4.24589698029892   16.39667108735286
H         5.94961694118142    4.37435208403873   17.34865778179580
C         5.61629896260896    5.18605003967627   15.39878463103481
H         6.22972682499934    6.05934299196007   15.56974030826510
C         4.98935307517075    5.04765066348932   14.16123609153504
C         5.19150532955962    6.16357383040723   13.21254417537749
C         4.18047966565798    7.09959740873549   13.01365146023113
H         3.21306003843886    6.94444725373870   13.47175455492125
C         4.42701444491086    8.24166674284207   12.27324744537770
H         3.64714507386599    8.97779579243434   12.14752440222068
C         5.67220549722617    8.44932824847503   11.70635442367877
H         5.86277979687376    9.34922216038578   11.14051245320390
C         6.67235619514684    7.50845148057464   11.87551961099311
H         7.64180983649432    7.65826110750336   11.42552773712175
C         6.43920118005759    6.38022906228248   12.63923840136804
H         7.22914258216596    5.65962046844161   12.79274343094898
C         1.71926083345700    3.06581040556025   12.51598224982142
C         1.15529200551195    4.08877736670103   13.50547214224635
H         0.07114284118936    4.00452373644895   13.55727629786092
H         1.39597867773572    5.09959525531825   13.17147355110215
H         1.56101669026708    3.94603059578725   14.50559905110781
C         1.43691561558878    1.64166179446377   12.99120927597134
H         0.35685289914652    1.51497882555734   13.06914751663192
H         1.85499694688427    1.42526322251498   13.96932263277477
H         1.80154641599597    0.90827298319074   12.27619213481701
C         1.00753670671899    3.25171548668642   11.17214665652959
H        -0.05493671204196    3.04099387209604   11.28547249255414
H         1.40147051239316    2.58597942330839   10.40829335468385
H         1.11143787987029    4.27468614592157   10.81526054734596
C         4.63179822855769    2.23436102968340   11.63276899816940
C         4.83233442247440    1.04603787513146   12.57071941017720
H         5.49639916800890    0.33071338715195   12.08574466779003
H         3.90160142775723    0.53382434605151   12.79518276346776
H         5.30190555164376    1.35406192305892   13.50224650661077
C         4.09548853242444    1.75557529045335   10.28493449833126
H         4.83900119583641    1.12956354241054    9.79310732637462
H         3.88409524283634    2.60527405920841    9.63563981545350
H         3.18649306326406    1.16843002137979   10.40173557108420
C         5.98472969878853    2.92398296384378   11.42514665787513
H         6.69378298668067    2.22559903628219   10.98311277198884
H         6.39223768870121    3.26236450979057   12.37733364011019
H         5.89729311617646    3.78518279190321   10.76208060397568
C         3.76610060335520    6.44952228430682    8.95718415442720
C         2.85706512658730    6.91989313067698    8.08085249253446
C         3.23970327597819    7.77519183128218    6.88805705293142
H         2.51024077291988    7.65543171405932    6.08111789197376
C         4.58438443517171    7.30194247086857    6.41804958840607
C         5.63941139484530    7.47141369299682    7.48141509565361
C         5.19269207299625    6.59594512870415    8.66357702182321
C         3.29211342306251    9.25126095048135    7.30867183368650
H         2.30182228403843    9.55425116650048    7.65824547952175
H         3.54196346802076    9.85654481015487    6.43364312781394
C         4.33385892912593    9.46412212624369    8.39861924092016
H         4.41084251544773   10.52783665034257    8.63671456758096
H         4.03018740449261    8.93626524916940    9.30533959402180
C         5.68930102537102    8.94253100190354    7.93898224593414
H         6.42166787980924    9.02586061747613    8.74556975397621
H         6.04554609123973    9.54457216461069    7.09803401291009
C         0.66588903129795    4.74713126019836    7.77474170603685
C         1.69280973201138    3.81424030608723    7.68296676198675
H         2.70758891602441    4.13345721251806    7.87337860026010
C         1.43570470524262    2.49685385849499    7.34911417059013
H         2.24918754592442    1.78802934805331    7.28168430019702
C         0.13738050496178    2.08780159147280    7.09553116087988
H        -0.06741457988036    1.05918015939897    6.83505325172773
C        -0.89618603533950    3.00671835648341    7.16525999393532
H        -1.91002710255652    2.69629965784404    6.95476212904826
C        -0.63051959547205    4.32255902307846    7.49853059321687
H        -1.44070874525490    5.03800775083470    7.53220975474034
C         0.43323512104285    6.85644452536571   10.04806484555147
C        -0.67840676210140    6.20289990827120   10.56933992814931
H        -1.19886596830709    5.47834312840338    9.96034637436110
C        -1.12343160983802    6.45913070882611   11.85394274341175
H        -1.98980462088279    5.94022539926302   12.23970423864333
C        -0.46242157836958    7.38339549997888   12.64470277566919
H        -0.80717324072780    7.58606027161253   13.64874807868797
C         0.64137781027714    8.04983340569599   12.13941191741655
H         1.15408707718004    8.77956562260086   12.75070754927218
C         1.08061999724708    7.78623846709397   10.85466163724444
H         1.94120761805239    8.30659766161133   10.46208264380212
C        -0.01114789128405    7.67817670165755    7.13939814513283
C        -0.56684763546217    8.86109047948209    7.61757001225472
H        -0.43574285074024    9.12206252713468    8.65890834545459
C        -1.28684863508360    9.69963156523301    6.78600045260975
H        -1.71122588806275   10.61393096337602    7.17642598917926
C        -1.46440452885165    9.36759875136418    5.45345191939648
H        -2.02592190264552   10.02100936025960    4.80134595161112
C        -0.92168784419377    8.19255755045138    4.96085373677878
H        -1.05877255356294    7.92719792894497    3.92228081720969
C        -0.20330498547305    7.35858785000344    5.79804104854403
H         0.21374811079988    6.44004400907612    5.40883408300459
C         7.01573362611216    7.02783766959009    6.98924386843589
H         6.95772672011014    6.01576683941926    6.59582793372183
H         7.72775362571521    7.04200819215358    7.81061794071685
H         7.36201291428289    7.68621421796565    6.19564695628995

