58
CSD_code = MUPDOQ | q = 0 | S = 0 | Stoichiometry = C26H26Cl2N2ORu | MND = 9
Ru       -0.43718094900981    3.71018542048707   10.35019819052618
Cl        0.78041021645823    6.39038312784991   17.84161293740914
Cl       -2.51863174645074    3.22842607642842   11.34502542659203
N         1.09094538439361    7.20471539324853   11.98758163339508
N         0.14584605759165    4.46070037077784   11.98883215695497
O         0.71713190405756    6.81365041161855    9.79626850004925
C         0.45466905045333    6.56814979253957   10.95722483319456
C        -0.52129020170376    5.50089569140790   11.37098503483729
H        -1.40894667493605    5.87709327877169   11.90516751878467
C         0.82063299062805    4.44588405300333   13.09294885913176
C         0.84050838197489    5.50698105997476   15.30020501329273
H         0.81396010377922    4.51332345379593   15.71863332907367
C         0.81813168765524    6.60830224448775   16.12927726785779
C         0.81722585785466    7.88962451120523   15.59527237310456
H         0.78188518998965    8.74985546695826   16.24378126227183
C         0.86568919791643    8.04592858498093   14.22567433808471
H         0.86656313109982    9.04342475715808   13.81661807617472
C         0.90120685622862    6.95279483407813   13.35827041084391
C         0.87551337253549    5.65447297062817   13.91043031304198
C         1.45434169173772    3.19393317464068   13.50881224010905
C         0.85815850535238    1.98281944896059   13.15125926394059
H        -0.09966493054886    1.99783848528820   12.64473337748484
C         1.46768203400987    0.78680223212095   13.47525063342429
H         0.99699497091557   -0.14685499597519   13.20431266734923
C         2.67670093905242    0.78167940369742   14.15441538190467
H         3.15324427188502   -0.15439678980567   14.40523860966889
C         3.27090815508451    1.98026779479455   14.51626912114321
H         4.21189877126469    1.97755364181559   15.04656362682929
C         2.66673146248850    3.18191638682546   14.19833193835053
H         3.13798062894511    4.11611234860064   14.46793568788224
C         1.98907013907105    8.28904414223011   11.62358626793317
H         2.38516453066385    8.06501810708492   10.63348036170122
H         2.80183619273485    8.35262672986934   12.34421508001247
H         1.46438417032743    9.24496153762799   11.56989245214289
C         1.51078156237006    2.95329960388341    9.45238379764389
C         1.03587338993456    4.03774539523096    8.67707212727025
H         1.68016737761071    4.87983320748651    8.46332397926972
C        -0.24988739250738    4.00252649734418    8.08187012680987
H        -0.55583624731783    4.81837838858133    7.43841649785671
C        -1.09654416724116    2.90418097703710    8.28388124658148
C        -0.61519992428201    1.81662198394898    9.07463783323360
H        -1.24785121975792    0.94095135275247    9.19076751102701
C         0.68003456448466    1.81201135938120    9.60316635010715
H         1.05868784465750    0.93591375927877   10.11552695733469
C         2.93039876763059    2.90780649587286    9.97221623936442
H         2.96442982053852    2.19095105543148   10.80204301519187
C         3.84628268523370    2.39953842983340    8.85267619277325
H         3.82868260784788    3.08582976560353    8.00849910347393
H         3.52296872011636    1.41999000873228    8.50690547193573
H         4.86898565989483    2.31926426630842    9.21299202141838
C         3.42080712807342    4.25767640388369   10.49545356759214
H         4.37508884014988    4.13119256483430   11.00179093332031
H         2.70755270803976    4.67216754797346   11.20586742484953
H         3.55732506453440    4.97011951121952    9.68565395367376
C        -2.46012950205038    2.81794031769061    7.66041245020366
H        -2.52567415423788    1.94399976358883    7.01118276442466
H        -2.67774814563311    3.70985015594435    7.07768661152785
H        -3.21729733159136    2.71939804098176    8.43976963861792

