66
CSD_code = MUPFIM | q = 0 | S = 0 | Stoichiometry = C26H38AuP | MND = 2
Au        1.10575024949807    0.31883907531092    8.65749434006091
P        -0.17131055819199    2.13551082271120    9.09430005239185
C         2.18715738537234   -1.27148107839252    8.32385961254812
C         2.84538718005903   -2.26222099103865    8.09989913893013
C         3.61409920844433   -3.42087386863190    7.82930386914802
C         3.59973930161495   -4.50556648172981    8.70853633057762
C         4.34695187891579   -5.63443000924692    8.43591144524340
C         5.11871729035482   -5.70189905702965    7.28673893831832
C         5.13931972061074   -4.62974998111710    6.40868684143601
C         4.39502947416819   -3.49739527454949    6.67408389365310
C        -0.41193288895293    3.37169078203553    7.71648510913054
C         0.73350996642486    3.21967343496865    6.71144447030922
C         0.47681867349857    4.07684659681171    5.47571746595637
C         0.29190345356318    5.54004057438440    5.86675831228258
C        -0.84649003644806    5.68174467330972    6.87248791623840
C        -0.57106807652200    4.83826753453401    8.11662592767555
C         0.45374300492086    3.09879125631978   10.55331875413420
C         1.92809598390635    3.41607300846287   10.28922446595805
C         2.56115732436351    4.12860368744292   11.47970572410111
C         2.44105573622646    3.26797386567487   12.73211349569398
C         0.97493651830377    2.95881616693924   13.01245253750398
C         0.32854145882411    2.25409358461451   11.82211591210620
C        -1.89654495282314    1.63018865175149    9.55523932989369
C        -2.87741010835424    2.74897255812581    9.89647385377517
C        -4.20694527381946    2.14596757415064   10.34738119991889
C        -4.78554423495998    1.24783066173851    9.25776161651658
C        -3.79914429949013    0.14086453649477    8.89555940652791
C        -2.46737584136009    0.73836252037352    8.45064492299642
H         2.99593064212364   -4.45021011396379    9.60405828003784
H         4.32920469386486   -6.47003651539508    9.12258143771979
H         5.70201448379902   -6.58714265349673    7.07596729421451
H         5.74073468775825   -4.67997220384749    5.51101284442533
H         4.40808650643207   -2.65907647273777    5.99098273434096
H        -1.33497539264582    3.04845806046683    7.21364037215087
H         1.67685530878767    3.52100512610050    7.17401748613360
H         0.83097226379581    2.16870019750738    6.42279431124829
H         1.31185117175781    3.97799771334791    4.77984270317843
H        -0.42360317852374    3.72048235668955    4.96897946504065
H         1.21647108352444    5.91662509146653    6.31081258619297
H         0.08024763302342    6.13884641713903    4.97895080162476
H        -0.96249969864173    6.72898451743345    7.15990287781822
H        -1.78212800161663    5.35726493953835    6.40997707425503
H        -1.38946279151535    4.96007141374963    8.82879898110531
H         0.34462443779345    5.20107371972192    8.58709760767734
H        -0.11320632539847    4.02948167980083   10.67246657187576
H         2.46114448599930    2.47754727049858   10.10321718386090
H         2.03065525181607    4.03504177257237    9.39476225518935
H         3.61147176072098    4.33604356905977   11.26602556402818
H         2.05707921352113    5.08482023306591   11.64435247268344
H         2.98752339176349    2.33417920271304   12.58340591288955
H         2.88310083056979    3.78451845030331   13.58612888997261
H         0.88829249896707    2.32743178632691   13.89892250676873
H         0.44032438779129    3.89131258310997   13.21299564569465
H        -0.72217929974997    2.06551026458915   12.05295932838450
H         0.81900219536207    1.28895368587968   11.65716891407840
H        -1.75557913986517    0.99529615512376   10.44229980096878
H        -2.47504826307460    3.38494588061352   10.68873390863707
H        -3.05252130994880    3.36887244937939    9.01450528219057
H        -4.04998405297046    1.55894767761735   11.25565205149204
H        -4.91154061152765    2.94605442927652   10.58444410815915
H        -5.72581480036142    0.81063710377792    9.59856167216949
H        -4.99941103299548    1.84796451703532    8.36988420211644
H        -3.63575005258656   -0.50015319327651    9.76499288376192
H        -4.21010571301258   -0.47912770728220    8.09661275231894
H        -2.62582557722333    1.31981091612367    7.53851945693881
H        -1.75529922564177   -0.06019514443584    8.21834689567440

