37
CSD_code = MUPFAE | q = 0 | S = 0 | Stoichiometry = C14H19ClO2Ti | MND = 12
Ti        0.21148588919791    2.84948702595887    2.23309185214378
Cl        2.34268812845718    2.86184288495217    2.92678722356679
O         0.56198218331722    2.66338602753781    0.53402900750594
O         1.41373765421557    3.69781376916107    0.07549951348684
C         0.46989389381524    5.17985884809020    2.39913766320808
H         1.39845359882524    5.68599697586754    2.16752656312086
C        -0.60518830097187    4.97989076325648    1.51389457723101
H        -0.64494423061468    5.29901206901274    0.48065579994732
C        -1.65254294439134    4.37100790064885    2.23427409584385
H        -2.64795025068845    4.18571153710922    1.85158329692195
C        -1.24600119561677    4.25638547864888    3.58264859973720
H        -1.87396087805090    3.95139743916010    4.40836800573089
C         0.07023388433870    4.72321996999936    3.68241402878914
H         0.64234510792234    4.84025316014338    4.59506075804481
C         0.17466624110971    0.44282125437765    1.86743734056268
H         0.79616559189416   -0.09605011810403    1.16494518057417
C         0.46490606336710    0.65958706471264    3.22547454314559
H         1.34405724473039    0.30640366401200    3.74878243823996
C        -0.63995812960179    1.31266999276552    3.81144909366860
H        -0.76181609963877    1.50636757989398    4.86980500181443
C        -1.62716390775833    1.46944999575234    2.81575523913329
H        -2.64538208614353    1.79432714406150    2.97749701958529
C        -1.11488944096303    0.96002933496604    1.60674517496021
H        -1.65791317199672    0.86228758089152    0.67543957974536
C         2.31587168662598    3.21160857450155   -0.93315941606291
C         3.14219739535904    2.04100556292865   -0.39471710944604
H         3.63490113562513    2.33313302331273    0.53067747476898
H         3.88945627258129    1.74231368425943   -1.12446122486699
H         2.48899863024808    1.19521599088301   -0.18408669476978
C         3.20675872241618    4.42169686438925   -1.21448371998696
H         2.60062043435758    5.26393114886500   -1.53753071576543
H         3.92516381527564    4.17854068522921   -1.99138904205352
H         3.73733531241137    4.70225558809481   -0.30857011569099
C         1.52542263850040    2.79511789399950   -2.17753313809982
H         0.79718671421398    2.03401205665392   -1.90235610392617
H         2.19326857630924    2.39233531710170   -2.93324240867764
H         0.99491382134925    3.65107626690451   -2.58854938212979

