76
CSD_code = MUPGEJ | q = 0 | S = 0 | Stoichiometry = C32H42AuP | MND = 2
Au        1.23237368989486    3.19269691727031   -5.80099387201482
P        -0.61661614593694    3.13859015130480   -4.49629859714948
C         2.82970540566606    3.15578633845434   -6.92179572813832
C         3.81617722626806    3.12338503984715   -7.62279161796768
C         4.96647921288065    3.08778967948862   -8.44592832509495
C         5.73885968660424    4.23487611130390   -8.64371856824029
C         6.85962987852519    4.19506848734465   -9.44509875957962
C         7.24384894244188    3.01564587359729  -10.08274808117707
C         6.46905043759189    1.87265361259632   -9.88652114173573
C         5.35218613205425    1.90389257229700   -9.07940559130247
C         8.43512433100253    2.97877570886625  -10.94074333326153
C         9.59922539750003    3.65165057847124  -10.57380578457132
C        10.72029026455042    3.61618356480938  -11.38130946175200
C        10.69968180322612    2.91057096956605  -12.57276948710911
C         9.54867994110627    2.23892003058312  -12.94943116518082
C         8.42789664803272    2.27090665189192  -12.14127338989655
C        -1.38370637812778    4.76395454768952   -3.99287612749690
C        -0.32327725928195    5.86385048229447   -4.09883306492355
C        -0.95335509751940    7.23592077831255   -3.87908548844989
C        -1.65831840901762    7.29265887768865   -2.52702975377167
C        -2.70790487783582    6.18994049841982   -2.42766367992454
C        -2.06461500572612    4.81805327161799   -2.62543721821516
C        -0.31223167025211    2.19731260595433   -2.92556801196663
C         0.91155804429614    2.82191981601112   -2.25011186351622
C         1.30213305576195    2.05065864541758   -0.99384025002392
C         1.59903040794597    0.59637859131311   -1.34098502036562
C         0.38041199871652   -0.03995559237555   -1.99941143700589
C        -0.02721631531311    0.73068937493790   -3.25284044367894
C        -1.99478531396499    2.22721086124112   -5.34113297970779
C        -3.29957590939471    2.07334114412032   -4.56399363062258
C        -4.27471825651828    1.21147150079525   -5.36427205367994
C        -4.54320175356489    1.83543303444258   -6.73072106435110
C        -3.23944117538154    2.01474138846290   -7.50392214674426
C        -2.25842370825877    2.86834615164124   -6.70520483593718
H         5.44491697552141    5.15703914939314   -8.16131423261058
H         7.43659863717404    5.09614781999580   -9.60229463641851
H         6.76349844416813    0.94403072882291  -10.35613496259704
H         4.76321650888319    1.00966668245646   -8.92751253763851
H         9.62890282723830    4.19027851207456   -9.63737310986078
H        11.61666185742512    4.13928883776806  -11.07898508925427
H        11.57583022494823    2.88428648355640  -13.20438376885376
H         9.52400347236728    1.68972911094006  -13.88019654812911
H         7.52810245223243    1.75847837867157  -12.45066374267116
H        -2.14144834057877    4.96270672081776   -4.76473504535809
H         0.45907241053307    5.69931739204070   -3.35351757591261
H         0.14957050877351    5.82372002710622   -5.08484094776305
H        -0.18264630617795    8.00700892523518   -3.93170857066551
H        -1.67726089902787    7.43315625995619   -4.67380929510977
H        -0.92311244050251    7.16575420799459   -1.72876250101350
H        -2.13015983612342    8.26795499336922   -2.39387997109347
H        -3.19654376457116    6.22653550472922   -1.45160154140514
H        -3.47450974658484    6.34826625061521   -3.19049374468812
H        -2.82690963786690    4.04138590820902   -2.53974423937354
H        -1.33018734425567    4.66082184787878   -1.83339159891252
H        -1.18119251473861    2.26528816083946   -2.26065124881389
H         1.74762465250674    2.80920912229333   -2.95755535801624
H         0.71428619194356    3.86524867421946   -1.99285387850920
H         2.17882288441577    2.51434958769338   -0.53751611891266
H         0.48449328792400    2.09322694103167   -0.26910505124999
H         2.44703543552690    0.55402929301195   -2.02789112889843
H         1.86770893502612    0.04260255715223   -0.43952061482057
H         0.59702935750206   -1.07640187466146   -2.26555374055171
H        -0.45292877947129   -0.04399470172586   -1.29155116878487
H        -0.91152916958675    0.25720420991587   -3.68486150391754
H         0.77994611632822    0.68150511357603   -3.99142576953132
H        -1.57131483268840    1.22977547346336   -5.52992836443984
H        -3.11549448675822    1.61259243428040   -3.59046182405577
H        -3.74964539713253    3.05483422488818   -4.39993376007809
H        -3.85149751546925    0.21286380449782   -5.49813765738182
H        -5.21076569184900    1.10610298422385   -4.81151309783550
H        -5.22780669470988    1.20302759968655   -7.29880619391597
H        -5.02211500574101    2.80848026601673   -6.59620998741982
H        -2.79349165534270    1.03631490911228   -7.69723142183942
H        -3.43871374410194    2.48679106779249   -8.46781485464546
H        -2.67958522150272    3.86919556706504   -6.57828530736489
H        -1.31541738363139    2.96926257832078   -7.25228631513449

