68
CSD_code = MUPKEP | q = 1 | S = 0 | Stoichiometry = C23H34CuIN9(1+) | MND = 3
I         0.81792825285969    3.16450336621657   14.95024358243828
Cu        3.17621311250699    3.16451767305536   14.23499976015068
N         4.40336097960037    4.57666809629972   13.78400221348876
N         3.20277668156185    6.21485192523308   14.91073677543655
N         3.41428965179363    6.31928541186486   12.58591508597172
N        11.39252251888401    3.16451373469532   11.17203555117181
N         9.56538246109901    4.35261051568318   11.89447105889877
C         5.65296463657834    4.43552582071754   13.31184941597895
C         6.43266222588071    5.61952765251455   13.12102244011866
H         5.96308839993670    6.56150602760166   13.37170731154321
C         7.70033255547011    5.60247919231860   12.65126447895216
H         8.26543742752458    6.50771865086386   12.49826258197996
C         8.32841757457136    4.35664703314692   12.36075997622765
C         7.60085728559465    3.16450655798384   12.61053984744663
C         6.26078091763530    3.16451108755699   13.08115327018490
C        10.15104158220558    3.16451179163893   11.65951947124571
C         3.69248081290037    5.72436202584288   13.76471387774714
C         3.73791092809424    5.75501284353816   16.17426548621680
H         3.14277478553322    4.93212707919742   16.58005073951254
H         3.71094796606418    6.58323360148026   16.88166194617212
H         4.76684040955871    5.42302187950179   16.05327552305400
C         1.91562192011477    6.87522839847799   15.02397259924013
H         2.03177781975087    7.91164529976472   15.34418706011794
H         1.32051076491140    6.34838484865711   15.77130165967544
H         1.37573187690682    6.83495129577058   14.08367196968280
C         3.62997522552050    5.61843055327163   11.34054619537649
H         4.63184343008316    5.79788189025022   10.93783546054012
H         2.89216369857532    5.96518328999318   10.61761075050063
H         3.49650316816602    4.54721429674413   11.48753394054039
C         3.14990190440934    7.73576851006483   12.44174614610062
H         2.12665712722130    7.91812888188108   12.10819582497091
H         3.83179836353352    8.13926047767693   11.68956375590757
H         3.32588288485804    8.25700430409492   13.37765123665681
C        12.10289095816757    4.38819031355235   10.89901409209344
H        12.37310931593366    4.43452040580782    9.84160396232650
H        13.01752683477590    4.42948417527229   11.49473842630911
H        11.46675278502033    5.23195334458793   11.15021713335675
N         4.40334375893876    1.75236185898840   13.78399101274258
N         3.20278249613192    0.11416730962917   14.91073136317282
N         3.41429143430715    0.00972902066003   12.58590723649559
N         9.56539434876975    1.97640790284492   11.89448590532677
C         5.65296359433106    1.89350476474076   13.31183782173570
C         6.43265956014746    0.70950291262786   13.12105148128364
H         5.96307511289273   -0.23246966256264   13.37173381271473
C         7.70034066454300    0.72654277231468   12.65130831331764
H         8.26543831657686   -0.17870098796677   12.49831379106408
C         8.32841619569054    1.97236855878536   12.36077764384630
C         3.69247530755899    0.60465889074103   13.76470582579553
C         3.73791846469426    0.57401895200686   16.17425450175179
H         3.14277959092784    1.39690175710525   16.58004089045911
H         3.71096822549247   -0.25420040980873   16.88165288329776
H         4.76684451511679    0.90601731495232   16.05325377679889
C         1.91562756643512   -0.54621005518352   15.02397645353050
H         2.03178449980144   -1.58262584252602   15.34419250501985
H         1.32051573376111   -0.01936897396732   15.77130628864785
H         1.37573388193128   -0.50593627998336   14.08367810623770
C         3.62998420660591    0.71057827941865   11.34053591859458
H         4.63185793781933    0.53112416031947   10.93783962456584
H         2.89218167878612    0.36381963860571   10.61759438634624
H         3.49651098626755    1.78179503534753   11.48751617891603
C         3.14991060748598   -1.40675647784205   12.44174562940301
H         2.12667002492557   -1.58912725093809   12.10818861960814
H         3.83181641410603   -1.81024682824506   11.68957156518234
H         3.32588972890207   -1.92798514127820   13.37765499840615
C        12.10288956568172    1.94083508801247   10.89902196120022
H        12.37310282410403    1.89449911236446    9.84161099189543
H        13.01752524373858    1.89954557248171   11.49474637914602
H        11.46674826972716    1.09707675553508   11.15023352616137

