71
CSD_code = MUPROE | q = 0 | S = 0 | Stoichiometry = C18H47ClIrOP3 | MND = 6
Ir        2.12112887963205    1.59813241612255    4.87369752778498
Cl        3.03185765476791    2.20368151999301    2.69959606536891
P         2.35959098699087   -0.70314107645032    4.53164061255078
P         4.03328643830736    2.51536049855408    5.81542362094830
P         0.72117782700673    3.52239530617732    4.81822740448365
O         0.61997590146321    0.63792670213637    3.82010268544285
C         3.86952119735487   -1.52843154438492    5.28052644981133
C         3.99673753369146   -3.04400753380717    5.18350745897071
C         2.39038804824820   -1.45479445090468    2.84173306813927
C         3.62236499249032   -1.10926745728235    2.01714009625392
C         1.01598942667825   -1.69714381788906    5.32473397986383
C         1.05708497158769   -1.72130018639898    6.84541104398322
C         4.01180538180510    2.95212019159550    7.61614826651783
C         3.76734306361480    1.74005961519547    8.50369014356302
C         4.53196129089818    4.11512321278944    5.03682650487905
C         5.74519231425291    4.84369333781060    5.59954896566672
C         5.61720835528569    1.56239924916701    5.74553374509697
C         6.10532791333797    1.34875346958121    4.31863285957854
C         0.58644440434581    4.51882810839534    3.26545761704195
C         1.78001253075896    5.41244043025753    2.96264568756821
C         0.80622652249187    4.79981409156544    6.16406315424694
C        -0.24585307585143    5.90075691585593    6.14190754049287
C        -1.04374454278769    2.97983449681945    4.91152757920377
C        -1.41575023427526    2.32043907839000    6.23052065151126
H         1.54342441754708    1.26685203562353    6.24237449776080
H         0.80507509181279    0.92418589486167    2.91916739175007
H         4.73635312779890   -1.06752206541741    4.80412193330430
H         3.87851275181062   -1.22085597744409    6.33013509064392
H         3.14117435201040   -3.54864559766832    5.62457549869620
H         4.88936512548606   -3.37072898081042    5.71729926292157
H         4.09282375015619   -3.36805099205833    4.15035478083821
H         2.32243312581849   -2.53748942247152    2.98733793423125
H         1.48807297181926   -1.13516518395147    2.31881355085152
H         3.70174596003073   -0.03295340767166    1.88715475748417
H         3.54984299866591   -1.56636395215932    1.03088780110748
H         4.53248119831661   -1.46942648863982    2.49237696993112
H         0.07683444726567   -1.25670676954854    4.99124388485792
H         1.07827640720618   -2.71406404086230    4.92841501019205
H         1.93542384093340   -2.24294515484363    7.21712553501865
H         0.17300953888713   -2.22610852261145    7.23213033280578
H         1.06992579687876   -0.70598869738919    7.23311639582302
H         4.95946642315896    3.42560758712471    7.88226008273217
H         3.20836405190875    3.67950829350977    7.75542109661855
H         2.88346552568260    1.20588187733295    8.16262677158446
H         3.61463666090321    2.04819806887594    9.53635448025201
H         4.61460980566150    1.05959055706122    8.47355543168183
H         4.69114708328209    3.87365863236554    3.98304796719762
H         3.65432715102873    4.76411973550710    5.08364885774450
H         5.57245603814173    5.17895159860891    6.61950633243029
H         5.94862764694598    5.72290872440156    4.99010808361888
H         6.63255147524712    4.21678233985697    5.58409963060590
H         6.36827395830272    2.08728002150197    6.34381322799434
H         5.42121183182688    0.60101880975856    6.22420966165845
H         5.27821612757804    1.04696085777837    3.67944297300476
H         6.87459457834075    0.57835078249807    4.28451114834127
H         6.52404365237815    2.26397442891018    3.90707546861574
H         0.47434833092922    3.78910710187134    2.45839916147606
H        -0.33467580653547    5.10788553046310    3.31802815914423
H         1.96866553741585    6.11788472827894    3.77019073728597
H         1.59563286602508    5.97971682022238    2.05129931487778
H         2.66566657154478    4.80312887063622    2.80658531708476
H         0.74492973435304    4.23682542579973    7.09956248746860
H         1.80369712817293    5.24511755918697    6.12702149351706
H        -0.18922035551146    6.48324235085245    5.22577930891715
H        -0.08415356757861    6.57786558829558    6.97980388989046
H        -1.24853273810785    5.49189677149831    6.23211315032997
H        -1.69023562444310    3.83822761735192    4.70716514456880
H        -1.16988310412878    2.25271541426349    4.10527945058072
H        -0.76413623238656    1.46840451907797    6.40404059406291
H        -2.44526168235951    1.96820123947575    6.19544733022136
H        -1.31798575228964    3.01119289741878    7.06512988936945

