45
CSD_code = MUPSUM | q = 0 | S = 0 | Stoichiometry = C14H22Cl2N2O2RuS2 | MND = 6
Ru        0.14355802457772    1.19823136324700    3.09044940429987
Cl        1.49436670074137    3.12893728084159    3.11743327735879
Cl        1.39130622299658    0.10254732560071    1.41479346585019
S        -0.99210814835488    2.36922349169917    4.70538825689780
S         1.66052555672154    0.19909482391546    4.48398400301082
O        -2.23810193540865    1.72796222439398    5.12089171288947
O         1.34066367870899    0.24655915115094    5.91031339341696
N        -1.03464628913906   -0.40663993946960    3.19682109256792
N        -1.03776808554083    2.02195628147363    1.69218368917899
C        -1.36533695643077   -0.90781952081676    4.38838380900351
H        -0.94203908493251   -0.42351262049759    5.25866103631154
C        -2.20705511856360   -1.99420642341450    4.53445704200654
H        -2.44594301589869   -2.35198855651978    5.52281602542938
C        -2.72795774212711   -2.60552842551066    3.40347920815517
H        -3.38907285443426   -3.45418987152588    3.48540169652463
C        -2.36464655503815   -2.09922447899691    2.16569187148029
H        -2.72525808856513   -2.54420556221987    1.25203293608029
C        -1.52317990165209   -1.00391821662682    2.10685275565497
H        -1.20280992720254   -0.60404398633973    1.15294396220639
C        -2.37402005250735    1.99599730057722    1.75785772608553
H        -2.80906336770437    1.55861446999804    2.65072018976211
C        -3.17830831866710    2.50816083622963    0.75799629807300
H        -4.25120187935542    2.46223333191756    0.85930860394520
C        -2.58645928152379    3.07656822342555   -0.36170243326084
H        -3.18907228919044    3.48340142661777   -1.15895214006801
C        -1.20294634502832    3.10958456192312   -0.42261697531032
H        -0.69172436214155    3.54323877684734   -1.26681353130951
C        -0.46621229248984    2.57400688482932    0.61934581633623
H         0.61696657024692    2.58833380003408    0.60072649435325
C        -1.45336783478114    4.06248898398368    4.19285509883130
H        -2.21329439428893    3.99478899276185    3.42173897965892
H        -0.55759473705566    4.53778965250532    3.80779767659989
H        -1.84531873477246    4.58616269030311    5.05639823035658
C        -0.09875873825205    2.85930136793938    6.20592336617371
H        -0.80524402529500    3.32079917303782    6.88504169687593
H         0.68096054399534    3.54633332915156    5.89852289710377
H         0.33748902244546    1.96711660519004    6.64441780090448
C         3.36824777624593    0.77632977830119    4.29630814584250
H         3.38844961254242    1.83802329301028    4.52155029977414
H         3.64372810983663    0.61408406625392    3.25949794558736
H         4.00065968527221    0.22308162557402    4.98056788536570
C         1.98345518632032   -1.56046747030751    4.12793519307282
H         2.76736346129930   -1.89988827701030    4.79456191688323
H         2.27173600073647   -1.64347663996388    3.08582351692798
H         1.06893420360602   -2.11434112350076    4.31431066307802

