126
CSD_code = MUPWUQ | q = 0 | S = 0 | Stoichiometry = C52H66ClNO4PRh | MND = 6
C         0.26124573328876   10.64850252644800    5.27421955684649
H         0.29605957020061    9.83345347421649    4.53772995631362
H         1.28397536233370   11.01808372483410    5.43794929509123
C        -1.60261868858270    9.68877089851597    6.47984658330151
H        -1.89120792179715    9.30625497974608    7.45733438123904
H        -1.69049022154071    8.86818595887589    5.75253223829792
C        -2.51081100365346   10.84065234791314    6.05671376499574
H        -3.54996412809520   10.50518326203033    6.04033014496101
H        -2.41157080494845   11.65270167781237    6.77876762465884
C         0.01238775776088    9.71937002712741   10.35820716959675
C         0.64095457600281    8.29665013581181   10.36319582029595
H         1.71858093706742    8.39663066898988   10.17404482367676
C         0.01163035068019    7.41831041776990    9.27925321314900
H        -0.96274443961474    7.82622771613696    8.97449635356538
C         0.94742465221478    7.36227517162837    8.04375100303753
C        -0.95738830453202    6.21985434516635    6.81389076186476
H        -1.39571457227297    5.94464956109066    7.76109243740779
C         0.22981736183499    6.93654538749571    6.78188255244808
C         0.81019934893602    7.24289255363822    5.55895999428498
H         1.74527195588126    7.78307196283490    5.54363943915752
C         0.19955775713605    6.87579560647062    4.36978989388513
C        -0.99950391644922    6.17742342132505    4.42148565908071
H        -1.48552711385940    5.88808552047834    3.49971515476323
C         2.07618419340954    6.38205794494740    8.32992440031537
C         1.82368637148343    5.01603075078273    8.26574271302396
H         0.84419457791976    4.66985308609818    7.97726363606649
C        -2.51753117194292    9.76897985449128   10.53919361773238
H        -2.57718029248241    9.85954421435248    9.46603337074426
C        -1.27840619016646    9.71921092453793   11.16011557902256
C        -1.21379456899065    9.64084232830361   12.54452075659623
H        -0.25264358677186    9.60986217021412   13.03207741794353
C        -2.37234396597795    9.58669634106612   13.30593466721883
C        -3.60245875833191    9.62606990493864   12.66569159800962
H        -4.51077434119796    9.58372968003050   13.25087695333701
C        -0.09830077138306    6.31109021176899   11.29525549408371
C        -2.07800883724173   11.33182230026223    4.67931050556262
H        -2.70887225124390   12.16157570509856    4.35533671349767
H        -2.18612237053326   10.51943994965431    3.95449971274960
C        -0.62151282589859   11.77866508823147    4.74500635220123
H        -0.53813398354660   12.63127496739628    5.41897096277421
H        -0.26596609682603   12.07897009421906    3.75748801481962
C        -1.58127129878289    5.83605704145474    5.63421713107000
C         3.33622687233103    6.81998740260544    8.69791876137974
H         3.55055619153506    7.87603349620190    8.73406512271428
C         2.81117766513848    4.09892190964617    8.58344646048725
C        -1.49628424212752    6.22704047748428   11.91898006993210
H        -2.13529119040726    6.99731166449046   11.49484690865278
H        -1.42414262395265    6.38508331251292   12.99028126317226
H        -1.92431207645118    5.24974928333453   11.71682072995635
C         4.06980001250684    4.55977923310502    8.95548835868220
H         4.84273589325606    3.84506864870734    9.20315834147469
C         4.34539026191672    5.91487445889303    9.00921757328768
C        -2.86677918097232    5.06432357507437    5.66049321632121
H        -3.64333238064868    5.59886485278105    5.11487669610272
H        -3.20408495431775    4.90625568216907    6.68141779089661
H        -2.73521177526010    4.09362369240114    5.18374488070660
C         0.81771857165388    7.21389894073808    3.04595086183438
H         1.09830432249567    6.30308041480567    2.51770406734674
H         1.70726331689144    7.82489547155067    3.17655710312646
H         0.10954374278231    7.75492470444241    2.41932586401544
C        -5.02509494579154    9.79667318751647   10.60967435620488
H        -5.45237769234519   10.79159762668874   10.73562353932580
H        -5.71690182820056    9.07904474143468   11.04701833902841
H        -4.93585600048459    9.59835614911479    9.54445340015294
C        -3.68781544729199    9.72545754214229   11.28411492660082
C        -2.28768439937726    9.50862110741778   14.80057100834537
H        -2.19008310264966   10.51027657354295   15.21958216902033
H        -1.41805427954017    8.93196699815136   15.10629050456640
H        -3.18193642451051    9.05287598467494   15.21884828518869
C         1.08823180019266   14.53917202411754   10.99322645798600
H         0.26982046844978   14.84857084019468   11.64409264233649
H         0.75824730953994   14.65900576186767    9.96355177721149
H         1.93772054116830   15.19216019772661   11.18239888038990
C         0.67921246025922   12.09507149926661   10.67364192340465
H        -0.15976532910683   12.35071242151933   10.04448896389366
C         0.94204973272427   10.75915235707174   10.95021927094837
C         1.96959788425664   10.43046634645666   11.82496252003626
H         2.15859006378070    9.39799662198807   12.07903198862068
C         2.73941681113239   11.42617182475452   12.41035558156943
C         1.43226825011667   13.10636117231696   11.25940721648137
C         3.57078752160002   13.50008468951766    8.40619761843984
C         3.70439267802602   13.25889463084823    7.04911766965800
C         4.94455062535725   12.63840195582569    6.44465012060602
H         5.80756639941638   12.90726729006682    7.05593519674218
H         5.10714229499571   13.05988023001433    5.45061054613312
C         4.82811265165750   11.10796484497731    6.32535659548315
H         4.40688919097833   10.85944384298114    5.34755218451585
H         5.82223280331118   10.64870869017033    6.37392091386283
C         3.93972070815246   10.49182061266198    7.38249801128173
C         4.01697257007857   10.76863444366946    8.74533391289107
C         5.07308242798607   11.67051761200641    9.34788217530885
H         5.98639980262125   11.58939668127887    8.75446859245839
H         5.30701599266774   11.31595783981186   10.35359699744436
C         4.61533112709467   13.13894282521604    9.43575580741380
H         4.18717429683397   13.31394229951008   10.42335738200863
H         5.47474964475126   13.81023813489020    9.32497503745021
C         2.53839163760092    2.62560107349565    8.53350766185091
H         3.21481946234739    2.13717893222937    7.83310333140059
H         1.51538678447937    2.43253090277788    8.22246566352374
H         2.69516195464930    2.17782675844669    9.51424048843584
C         3.83748373538571   11.07560142880121   13.37103684209237
H         4.70724838083897   11.71142195004034   13.21527365652993
H         4.13517322771310   10.03571562284133   13.25994444390119
H         3.49791557080821   11.22325334109562   14.39667795709997
C         5.70000111217703    6.42455568695340    9.40196406741776
H         6.38659663634516    5.60325763399349    9.59091930606197
H         5.63018246901920    7.03357177042083   10.30262149971459
H         6.11196512860882    7.05045917188617    8.61158426065058
C         0.82412662944111    5.22030048028790   11.84394813508387
H         0.40566519947165    4.24540705435589   11.61570063627625
H         0.92681610294956    5.33901953722430   12.91789608129647
H         1.79985015700675    5.30529502011875   11.37228787322375
C         2.46056342077492   12.75604748866917   12.12324259658226
H         3.04293034900676   13.53245643768741   12.60272046303516
Cl        0.57739474094989   13.14590581122874    7.59424254312946
H         2.90155864783911   14.30154385549828    8.71466372152309
H         3.10017638243172   13.85364079568823    6.36344695421596
H         3.53290331768873    9.52938238412926    7.08212326648154
H         3.62284472279488   10.02292067209930    9.43467117554674
N        -0.22614875405467   10.12476213479728    6.53307745557884
O        -0.31371592845136   10.04239674817164    9.00355261680697
O         1.51701918832149    8.66039373656920    7.86879109993613
O         0.46771302656339    7.58503646777255   11.56170600565187
O        -0.17972455227516    6.16843110843644    9.88928776552786
P         0.79532342254010   10.14307646571921    7.84261906963864
Rh        2.35618471340458   11.80284080220890    7.90563936021169

