36
CSD_code = MUQFAG | q = 0 | S = 0 | Stoichiometry = C12H18Cl2N2OZn | MND = 4
Zn       15.88295540394360    7.54679441521099    3.78992599929664
Cl       15.52032671565084    7.63084654536712    1.60609633059733
Cl       14.46539227899593    5.87288623550763    4.51610513386083
O        16.21140625630143    9.04328266079276    4.79847840659953
N        17.64669236048807    6.57734468145294    4.09117584446606
N        15.91259391510969    4.30679898656266    2.52702004525478
H        15.97964311731646    3.36727804636336    2.92383454488528
H        15.35089013928804    4.90036613382998    3.26700066705276
C        18.50804432585984    8.51001956272722    5.30164520143995
C        17.34670608123693    9.34492087451407    5.32224514567573
C        17.45743032264245   10.59914730352686    5.97878270033463
H        16.57364202324367   11.21888270469920    5.98962927916191
C        18.61992933605200   11.01206735172648    6.56540380793948
H        18.66538283776474   11.97504547107678    7.05321352008899
C        19.75708121733968   10.19486119062239    6.53993406406808
H        20.67274618553469   10.52587391783596    7.00497334198690
C        19.68956658595484    8.97841598435027    5.92244458824252
H        20.56184085373145    8.33872458490833    5.89980468115982
C        18.57402025067890    7.21989597817001    4.71772458647439
H        19.54325169563406    6.71830647984781    4.83885697722413
C        17.93930813195457    5.22690436640672    3.65729359663673
H        17.59105628239571    4.53490425005176    4.43534498822192
H        19.02491292064418    5.09554522176899    3.55119625798130
C        17.25639045577571    4.88271442023487    2.33151958529253
H        17.13409043360548    5.79652771635490    1.74345193265646
H        17.86760925307313    4.17294866861623    1.76828519282200
C        15.09390850867815    4.27824819446284    1.29808458834715
H        15.61327830602641    3.70320744290856    0.52643889559654
H        14.98746968587107    5.31456048476345    0.96513529415862
C        13.72291458732829    3.68233726584872    1.58915921335472
H        13.27482869107245    4.23009081118066    2.41846802754804
H        13.82194805843002    2.63446833503842    1.88429040852936
C        12.82315609712375    3.78537268881386    0.36399569469718
H        12.70069753796101    4.82608154526835    0.07853548309234
H        11.84327885969016    3.36866081660004    0.57807056252556
H        13.25111028757950    3.24496866254906   -0.47736458725344

