69
CSD_code = MUQKEP | q = 0 | S = 0 | Stoichiometry = C20H40N4S4Zn | MND = 6
C         3.94414328863356    5.88010505816111   -6.93300826943076
H         4.33425762306362    6.88809749389124   -7.11577682195428
H         3.25831881766199    5.91300347570480   -6.08645067617831
C         3.23699488022047    5.36154090637050   -8.18443585122170
H         2.82200622894559    4.37361453922829   -7.97351041076854
H         2.41205672305896    6.03034557982338   -8.43381639822498
C         4.21894237465410    5.26553184056300   -9.35381096368015
C         5.40828099267862    4.40072303079082   -8.93141784337235
H         5.06918937450389    3.37998119413912   -8.74178483493295
H         6.15688741858736    4.36861367226899   -9.72424069981689
C         6.04563667438837    4.95544370670057   -7.65812132747813
H         6.87353507925484    4.32567490208659   -7.33200636542365
H         6.41898632623279    5.96993349497296   -7.83945015938653
C         5.09285867232674    4.24835322325330   -5.51910192309938
C         5.98839161312153    6.30095860047531    0.86480788294423
H         6.69599589464746    6.41867708056116    0.04400720084099
H         5.38707284968927    7.21350670290016    0.95132345799548
C         6.71914880676187    6.03445646482523    2.18002458363748
H         7.37686512220742    6.87566543683613    2.40299810217993
H         7.33638016028781    5.14052597671944    2.06769432416696
C         5.71727715615671    5.82350407128450    3.31675718829607
C         4.75649672929206    4.69889594960227    2.92597046634354
H         3.98581026251876    4.57463843502819    3.68801324322305
H         5.30806472064258    3.75998244797166    2.84333278858288
C         4.09131682894465    5.00345521670032    1.58455229761117
H         3.43696780737813    4.18554311955917    1.28238755999672
H         3.49959817695005    5.92307895863746    1.66237458807678
C         5.26867761800413    4.38055192610337   -0.46762190947283
C         4.92117457891097   -0.15812212183185   -2.84300825981175
H         4.63049591089378   -1.13852508064469   -3.24974944675440
H         4.65019338544829   -0.13468412285953   -1.78627908382412
C         6.43312149350157    0.00762747465286   -2.97794726690846
H         6.93059305989405   -0.87100894315467   -2.54028358252904
H         6.69567461315359    0.05534781311449   -4.03601273775662
C         3.53975372567543    4.69876476146865  -10.59649382581521
H         4.24264620574206    4.64573742473121  -11.42463021198058
H         2.70365307715278    5.32721794076347  -10.89424482401894
H         3.16328669227222    3.69689272630372  -10.40131496883913
C         6.42904128008297    5.50825507706863    4.62853053025922
H         5.70757897460557    5.36521606163090    5.42968927504652
H         7.09556139426284    6.32147658188950    4.90624095799372
H         7.01879042841571    4.59928758664398    4.53145762683685
C         4.14401077488819    0.69417392886099   -4.95318527326361
H         5.14646198857531    0.68181329239487   -5.37328433912102
H         3.59472998702499    1.51010368403143   -5.41908773777486
H         3.64173201798475   -0.25238428229706   -5.19202485227849
C         2.82309711578156    0.98592103489894   -3.01237126356610
H         2.27765451219169    0.05527518024486   -3.21102123128228
H         2.30859455389695    1.81254381614413   -3.49819189702711
H         2.82804174870965    1.17504258751384   -1.94146746873770
C         8.23060079075769    1.58667206707381   -2.85008170563925
H         8.54686362561469    2.52446635087770   -2.39785505011567
H         8.19368546486596    1.72746550291163   -3.92776164578928
H         8.96519415572712    0.80719265975944   -2.61374483253256
C         6.99154987241690    1.08207025639235   -0.89950392076817
H         7.69752819871827    0.28679233042130   -0.62710418267756
H         6.01572929696259    0.85176973909190   -0.47990359534813
H         7.33231372721006    2.01870642647192   -0.46236684152092
N         5.05823446872849    5.01967129035077   -6.60470257753757
N         5.09902591866302    5.20111056035554    0.56753393796888
N         4.19196276369557    0.91569112854282   -3.51319307366445
N         6.90644372853921    1.23696847066071   -2.34646699746141
S         3.82467166352092    4.29553987552666   -4.38811753858987
S         6.40021841668134    3.19362743379557   -5.25734539656213
S         6.52880277999608    4.64193968738966   -1.57815280488051
S         4.23741408104397    3.04585599260939   -0.68233278956804
Zn        5.35805781264856    2.84038458337623   -2.96017441664240
H         4.58605389028202    6.27313076073593   -9.58352850870971
H         5.13860360403515    6.74606995696432    3.44519259166870

