47
CSD_code = MUQLAL | q = 0 | S = 0 | Stoichiometry = C24H20O2Ti | MND = 12
Ti       -0.49039395351452    3.50800530800750    2.86103431426353
O         0.42030035029291    3.95067792677866    4.33702183092263
O         0.57204371626604    4.69228033972033    2.03197006690710
C         1.72813778040299    4.80137518792365    2.69557548263945
C         2.89791978004551    5.28056657984515    1.95418332766182
C         1.62874499900503    4.42616092366676    4.02140765631624
C         2.59429993548464    4.59968135855608    5.10965546647049
C         2.53706064261491    3.72426249680881    6.19653998333217
C         2.71184680112326    6.16641398179355    0.89153638126716
C         1.21111185239233    2.00318420363398    1.92057228672670
C         3.52581971200366    5.63946204745154    5.13381179950716
C         3.41139250085895    3.85953526894314    7.25731909818614
C         4.18514672452293    4.81058451210852    2.22362561756121
C         5.25705868361536    5.24826270189805    1.47059863509436
C        -1.89208699764673    5.25208952922909    3.49601520442844
C         4.39739138335841    5.76865552948416    6.19746572307340
C         0.89605977004052    1.52726444022071    3.19955290640718
C        -2.87627317325530    3.21109161032097    3.22814697764780
C         3.78873157263395    6.60057336206190    0.14298831875958
C         0.03525559345638    1.95988753867690    1.13379162228303
C        -0.47443790920729    1.17581225813333    3.21593542952106
C        -0.98722607725204    1.39351780622100    1.91969687732660
C        -2.72661875824862    3.78978402073035    1.95589516457570
C         4.35096544911860    4.87716054395441    7.25822865618002
C        -2.11556584547836    5.04918259542859    2.11640287626499
C        -2.34136465001046    4.09883243199722    4.18134100335846
C         5.06541940568170    6.14785116539359    0.43297224931970
H         1.79318011962967    2.93886023876589    6.19240100283014
H         1.71022517134382    6.50714225141951    0.67118538578506
H         2.19398653037263    2.29141203340870    1.56978115623553
H         3.55332444939980    6.34982369943867    4.32190075186843
H         3.36033284290076    3.16991000534929    8.08748238949999
H         4.33520690166489    4.09719216829737    3.02047312316598
H         6.24895519853776    4.87945076380958    1.68764211115756
H        -1.50947050993179    6.15596706650443    3.95460245123137
H         5.11432368140817    6.57673631401890    6.20447201958035
H         1.59816366392388    1.37627967322991    4.01021184384073
H        -3.40385948593342    2.29338290521190    3.45196744596881
H         3.63325746348040    7.29324957570558   -0.67139867317404
H        -0.01509020256883    2.15924834599136    0.06952815211273
H        -0.97918121123580    0.65591072024011    4.02205530843424
H        -1.95266300994663    1.06660736180760    1.55777770830288
H        -3.12018697153336    3.39980745972622    1.02611767792801
H         5.03681569963925    4.98252074429404    8.08572040422147
H        -1.95410230580668    5.78271740965790    1.33595530449405
H        -2.38901685590421    3.98556445655608    5.25795768343583
H         5.90745954225491    6.48686113757915   -0.15211820292475

