141
CSD_code = MUQLIV | q = 0 | S = 0 | Stoichiometry = C55H77N6P2Sc | MND = 5
C        -2.14391843814741   16.26334168002406    9.92395030707424
H        -2.41753036938920   17.20536943723173   10.38448200176918
C        -2.18949933903448   15.11230878359020   10.67320483315303
H        -2.48937195298518   15.18061995230300   11.70442394772681
C        -1.80211583537184   13.88565411171077   10.10436224908872
C        -1.44882835786190   13.94254583286674    8.74279611886237
H        -1.16794601652330   13.05681022935417    8.20007495376347
C        -1.45531897113892   15.14655201515354    8.08373591913359
H        -1.18414500478160   15.17935032477389    7.03387483891745
C        -1.20465577931671   11.54266036601640   10.23273948771604
H        -0.19448975721180   11.75629838595593    9.87435043124674
H        -1.80325817404816   11.15984751296831    9.40045407044296
H        -1.14218616773376   10.76555969845071   10.99024331324619
C        -2.21413823006596   12.71123731546875   12.18415138098440
H        -3.23385033493385   13.09188688155885   12.28228030855237
H        -1.55026459460267   13.31797574874414   12.80554358570082
H        -2.19839294386239   11.68976186920088   12.55576463200268
C        -3.60327795747796   19.18756801183381    8.55463364517135
H        -3.75843027404654   18.12621886509700    8.69317799736176
C        -4.56300879132250   20.06895435198529    8.99434181232755
H        -5.43882440742203   19.67804852363908    9.48384013919116
C        -4.38813150674993   21.45295867104593    8.80450016440045
C        -3.20984605443526   21.81759078413311    8.12778274904163
H        -2.98278197902065   22.84751297295504    7.91236475731723
C        -2.31154002362357   20.85226346429404    7.73561873931845
H        -1.40791417852113   21.14848729921643    7.21951709833891
C        -5.04848698959626   23.77621757483838    9.04259150402011
H        -4.97837929571517   24.02284401816721    7.97954796503167
H        -4.12191482994950   24.08459937300245    9.53491860339301
H        -5.86773018885626   24.34803185236871    9.47018505907351
C        -6.47703106077360   21.94410037983432    9.93996369897831
H        -6.21840782957461   21.41746167863936   10.86341187096904
H        -7.08958701046388   21.28354585113203    9.31987269047927
H        -7.07459582764956   22.81372818925082   10.20003192263191
C         1.29372819437889   16.06782635351289    9.24812178330627
C         1.80041662400228   14.73870939021427    9.10430035993518
C         0.92213979933452   15.54055154720106   11.58716002452149
H         0.57081600422300   15.84119479341581   12.56565818737647
C         0.92285638167866   16.48242453116340   10.56474414692038
C         1.80034335926743   13.85469708449942   10.16913044480771
H         2.20205089657627   12.85919928189062   10.02180204412786
C         2.35848211842574   14.27003262320225    7.82619990401351
C         3.34409086798817   15.00164692361330    7.16012347745302
H         3.69864316765422   15.92344132142562    7.59681376097680
C         3.88887044346636   14.54473997663315    5.97545257740104
H         4.65307777460473   15.12534069041257    5.47782376734852
C         3.46942054462167   13.34199432397366    5.43087423290226
H         3.89772294079457   12.98279951173550    4.50603977534662
C         2.50386519870886   12.59728790210652    6.08731690422401
H         2.17617460323020   11.65350450784457    5.67329507114687
C         1.95481376372153   13.05684022671079    7.26942121712156
H         1.19837743019225   12.47005527809284    7.77215453939955
C         0.56988947361655   17.87577604987929   10.92247037293475
C         0.96151649145573   18.31388121179218   12.19521197972222
H         1.59399680359148   17.68404954270173   12.80639429102657
C         0.58440707608123   19.54638599294151   12.68702297327368
H         0.89218086862744   19.85443411155895   13.67737215269096
C        -0.17609021832535   20.38690189867502   11.89506951440227
H        -0.49430397497074   21.35258200419344   12.26892037344137
C        -0.49279028897766   19.99564557552210   10.60191599266590
H        -1.04648321937081   20.70993631529574    9.99090157170738
C        -0.14230374784309   18.74856699445432   10.06169960747305
C         2.03105194746217   20.72413305589744    8.29935129315141
H         1.89003750690945   19.77734876108197    8.84041391711392
H         1.53868633150663   21.52046439652449    8.87034997110043
C         1.39640119038014   20.64183771679829    6.94617179151406
C         1.61123493330642   21.46483691012902    5.86192799532023
H         2.31417206934407   22.27594447948870    5.80918410454250
C         0.73862192477471   21.03141213684031    4.84832549861007
H         0.63733473576417   21.44477426105260    3.85996312883616
C         0.03174775824109   19.97006873561929    5.37209565291944
C        -1.07271594422927   19.20503668186696    4.70690515783623
H        -0.99166544015301   19.30497081840628    3.61986025969298
H        -2.04406382255278   19.61725905751657    5.01558259499604
C         4.48630828177523   18.49124111841847    9.21320848863669
H         5.00796562389263   18.84340947992843   10.09967637086772
H         4.92378945550773   17.52931933420371    8.93999221758182
H         3.43846528762577   18.32029409222925    9.45680376037246
C         4.64014123459719   19.46054731519907    8.04635103070967
C         3.98600091634507   18.85288429981318    6.80287724919490
H         4.55194487155681   17.98488263481217    6.46333057387207
H         3.95349024632157   19.57869611662125    5.99079567075118
H         2.96725325408472   18.54075421337352    7.02468084544075
C         6.12479019451575   19.68071605320378    7.73864751052534
H         6.58936502265728   18.74182815256434    7.43587939902701
H         6.66518101081262   20.05910599646654    8.60120108426465
H         6.23551319745418   20.39501188193178    6.92403850652938
C         4.07408518467793   21.82692079425748    9.99742344801131
C         3.59532636583740   23.28249832316524    9.91213385185043
H         4.18390502047362   23.83198258250224    9.17889096005580
H         3.69975584237315   23.77609485399388   10.87832962698405
H         2.54956316205500   23.33683408530874    9.61487761149985
C         5.56322994184352   21.84692194010973   10.34179684266821
H         5.73389035813222   22.46356448100985   11.22511349551789
H         6.14009202112136   22.26638122040952    9.51880885731027
H         5.93272911482877   20.84797907071721   10.55783910471031
C         3.29834921604045   21.11228339983063   11.10013180118367
H         3.53925391147407   21.57133785090429   12.06036310366729
H         3.54867213516405   20.05872240550687   11.16189542481658
H         2.22506747625262   21.19307801478024   10.95517892770351
C         0.48522231812634   15.22384262336815    4.51581285150318
H         0.70304634834815   15.17897818693604    5.58216500361802
H         1.34850531907361   14.81836093304272    3.98918438749343
H        -0.36300685393740   14.57775642863891    4.30786742608008
C         0.23703014229637   16.66976168821667    4.07556747191733
C         1.51196740228768   17.47058733991522    4.35405314540278
H         1.46385633641657   18.46461961473973    3.91647688475836
H         2.37560999294811   16.95314881786366    3.93746275100197
H         1.66852538559389   17.58619110766411    5.42678213611575
C        -0.04806142677083   16.71101902126417    2.57611820899494
H        -0.27894132157198   17.72003770853918    2.24245942963111
H        -0.86123399856390   16.04659745392384    2.29554551850204
H         0.84313377575621   16.38458770995234    2.04016514206337
C        -2.82347777984844   16.91341264349367    4.56666640294364
C        -3.77697038071065   17.30132041019451    5.70237844783121
H        -3.50556491352526   16.77996630059241    6.62023166049709
H        -4.80248689831000   17.03580962700158    5.44426318200848
H        -3.74537399668064   18.37269067755759    5.89419955677214
C        -3.27908694757439   17.61276631276627    3.28561881434689
H        -4.26608241681805   17.23929562447963    3.01039833935626
H        -2.60895405588690   17.42046208171827    2.45462553977576
H        -3.36192730901050   18.68727793728319    3.42375578804426
C         1.33809384559556   14.22838570692733   11.42109327411340
C        -2.92367143404187   15.39974186895872    4.37471556950818
H        -3.96688887087983   15.11900450129906    4.22498892639124
H        -2.55995010694862   14.86865211430185    5.25213972527116
H        -2.36724629160955   15.06772467484278    3.50266436208957
C         1.37579263877446   13.26431556765106   12.57333852516324
H         2.40624029151887   13.09864680673463   12.89191580800013
H         0.95946775816653   12.29632322302798   12.29580857041765
H         0.82322861193694   13.65510350535130   13.42558503895678
N        -2.46941203214538   19.53795470913319    7.93942711444770
N        -5.29309483224301   22.36590946536076    9.23101489823899
N        -1.77969213614540   16.32081838831758    8.63607716817653
N        -1.80228229488503   12.72707971482462   10.80138115493504
N         0.42530709795478   19.71728193805658    6.66216412598590
N         1.15907092295698   16.88463335667750    8.18367497216567
H         1.54069893851994   16.41190255870488    7.36090963278948
P         3.83707094641186   21.18695749658944    8.20784712654090
P        -1.09273599036466   17.42256440538020    5.21967640906404
Sc       -0.40280822687205   18.21297505465578    7.94823853557516

