116
CSD_code = MUQLAN | q = 0 | S = 0 | Stoichiometry = C40H72NP2Sc | MND = 5
C         0.58336220452130    1.55665392483210    4.36432782315781
H        -0.42452758214543    1.96989097357763    4.47859239304632
H         0.49680585957780    0.49732061476050    4.10427090069062
C         1.37075944571731    1.72285691357820    5.62770739345415
C         1.77565693341562    0.75463931542388    6.51997969937048
H         1.59012522517662   -0.30171639832263    6.44839776803508
C         2.46914635802205    1.42287301685649    7.54510309074577
H         2.92353977643617    0.97983442798171    8.41279007445236
C         2.45111885650810    2.76247176459013    7.21915557501001
C         3.06040463670399    3.89917585858892    7.98343301340040
H         3.82213891011066    3.51934837272589    8.67275616028638
H         2.29625515296368    4.42323923058588    8.57237670057738
C         4.17446542177813    6.58317984970312    7.92394784460509
H         4.81021293364141    7.24580888604291    7.32190691794366
C         2.87229852137851    7.33228593785591    8.20992941062929
H         2.35337988087308    7.53993718998599    7.26852358415335
H         2.21621444421738    6.71129195210328    8.82420725612976
C         3.15910079587291    8.63243429663392    8.95537296459308
H         3.77468540827025    9.28238417984752    8.32906106209385
H         2.22366260659478    9.15584736892998    9.16301951873128
C         3.89290785660348    8.33869920328849   10.26061258700494
H         4.11835086972076    9.27160845833265   10.78106360288531
H         3.24936172864585    7.74069545140291   10.91009251260438
C         5.18352906676829    7.57319557359091    9.98534771087699
H         5.69086984716198    7.34864665936180   10.92617466307004
H         5.85222968469527    8.19596672345237    9.38588003490599
C         4.89462300892880    6.27370810644387    9.23444560725159
H         4.26862867184801    5.63304833837664    9.85850621867929
H         5.83498908951506    5.75272914615333    9.04558785573729
C         5.48542118076551    4.35145003826490    6.57843487781861
H         5.89508849446461    4.10487425363611    7.56703528804864
C         6.43740713875976    5.30477217962285    5.85540700124100
H         6.59410293205490    6.20689573001707    6.45098069004680
H         5.98951747993731    5.60342365195833    4.90383666785016
C         7.78578116763846    4.63900367200825    5.59062973889887
H         8.43849591827260    5.33286990768445    5.05621649740894
H         8.26460989145582    4.39803771415253    6.54332145382392
C         7.60444918411062    3.35996185946668    4.78061391970731
H         7.17026873992981    3.60223541366879    3.80783708197348
H         8.57333267020907    2.88713754024165    4.60714175903799
C         6.67898512326035    2.40364348049906    5.52403713337788
H         7.13333332942587    2.12999109421241    6.47981056322160
H         6.54449665163166    1.48667366939168    4.94732143148935
C         5.32445750818710    3.05782347417161    5.77794499579274
H         4.67673069356842    2.36310179417978    6.31720001889496
H         4.83871732821783    3.28701467166320    4.82115597843692
C         2.82641238994251    1.26255986161080    2.70585688446634
H         3.12234951569854    0.96573340923404    3.72499489240913
C         4.03759940690321    1.92048966293060    2.04359808106063
H         3.79061993590436    2.22517001227036    1.02421627397661
H         4.31602044179100    2.81971898675240    2.59993987597949
C         5.20922855305068    0.94324691729634    2.00392885156574
H         5.49525001016979    0.68333281882540    3.02558550113676
H         6.07071571439086    1.41143312855163    1.52279548929183
C         4.81874843421746   -0.32729269619702    1.25497523486853
H         4.58752928497694   -0.08001266558301    0.21586105280138
H         5.65432479324713   -1.03028591375737    1.25222250713078
C         3.59855038638044   -0.97275458490510    1.90520484268750
H         3.84643367736585   -1.27060607144633    2.92661069577063
H         3.31424619261099   -1.87169450850150    1.35346386058913
C         2.42625536140095    0.00669063028208    1.93436258245984
H         1.56350710283441   -0.47446879658931    2.39998315659495
H         2.15774234994230    0.26470477334396    0.90809479314707
C         0.28057625031739    2.35579488974623    1.59105875063401
H         0.01372579097640    1.30421624774414    1.43084729429208
C         0.93609330585638    2.93130201554640    0.33511961709949
H         1.25859634382449    3.95504944395838    0.54793505646335
H         1.82099657170880    2.35063427856389    0.06925716552270
C        -0.03303095204922    2.93908688444128   -0.84364795520585
H         0.46047924685320    3.35821355442378   -1.72318280047958
H        -0.32416545299487    1.91251455917878   -1.08100610379628
C        -1.27695605826942    3.75164866020074   -0.50406690486948
H        -0.99181315126275    4.78844000332032   -0.31242124070205
H        -1.97243705236548    3.74321100223366   -1.34570562867217
C        -1.94913023886323    3.17433255419246    0.73612873399571
H        -2.83069665919544    3.76504030912806    0.99372233821434
H        -2.28034609119274    2.15396982915658    0.52633924920447
C        -0.98128875176118    3.15810710883400    1.91644780160102
H        -1.48886615329648    2.73120260731972    2.78377464354777
H        -0.69019760662027    4.18474211897276    2.16833379800689
C        -0.17890296088992    5.98331811764043    5.00817916285331
H         0.03815707635031    7.06525486829762    5.11802197245035
H        -0.76456608557376    5.93297276200595    4.06762187028711
C        -1.18943345137915    5.66078591572864    6.13295392204283
C        -0.53305106353035    5.86583496528443    7.50212205785408
H        -1.22153003436038    5.60595770360574    8.30540453938866
H        -0.23262862752481    6.90463693844419    7.63192340696284
H         0.35315841182912    5.22972291909993    7.58117832378766
C        -1.65787950045523    4.20495427236274    6.03112425619277
H        -2.09281061756429    4.01327310381498    5.05015835969554
H        -2.41418382143901    3.98885326988463    6.78522848279553
H        -0.81296179100496    3.53031617471384    6.18919792419084
C        -2.41743793765922    6.58100304587453    6.03250228889171
H        -2.92406352394994    6.43864010943396    5.07948991727534
H        -2.11952938451938    7.62548868159462    6.10645128335164
H        -3.12848063854093    6.37213187954014    6.83088552152146
C         3.22498497046201    5.60547639483593    3.19685132127172
H         4.24822423791285    5.29309530707177    3.49828778548139
H         3.06378548593548    5.09518126068431    2.22419453033337
C         3.34093405492036    7.10456592122416    2.85562652298394
C         2.08166711121584    7.57112429998557    2.11739776426768
H         1.19502887002407    7.36095288765047    2.71669053015447
H         1.98446601641601    7.05137020187615    1.16582315636958
H         2.12329870239683    8.64060938279560    1.91723360032723
C         4.55881736841457    7.35949130342886    1.95020356601505
H         4.48860099442344    6.76533561586038    1.04078807753313
H         5.48156949271171    7.09086433804100    2.46238361165696
H         4.62258984081181    8.40909535341619    1.66651060215863
C         3.50699787551011    7.93209512053168    4.13555579834106
H         3.62683393976974    8.98913201800015    3.90191188775844
H         4.38481708733114    7.60289921914796    4.69121855274845
H         2.62821975500527    7.81318847869669    4.77444149220027
N         1.78417099226121    2.96550743018689    6.03976488519793
P         3.79762221933378    5.12673693292677    6.80702823747481
P         1.46264066371282    2.50589537057056    3.03613177629003
Sc        1.77071033379484    4.78720192314230    4.77438957990107

