28
CSD_code = MUQLOA | q = 1 | S = 0 | Stoichiometry = C6H15BrN3O2Pt(1+) | MND = 4
Pt        6.86452751287713    8.82178635555637    7.25361645194478
Br        7.29745199866160   10.90653746025174    6.20834997381883
O         3.63539159167939    4.95985168276039    9.09332815684958
H         3.45843264237331    4.10203897786094    9.51535183700713
O         5.80360417164834    4.50336765799824    9.40561645787475
N         7.00707351048804    7.76081475337579    5.50277414819188
H         6.37531577677927    8.05346932444817    4.75222342764379
H         7.95675412552434    7.95801059419292    5.16560531238440
N         6.55079153082001    6.96816302830733    8.18374152402117
N         6.94299431775527    9.60286110552321    9.14945527407171
H         7.89088864721266    9.99101138225055    9.22273845592859
H         6.30458466295725   10.38054969780112    9.33857320525436
C         6.85025558184801    6.31941810430630    5.81659867341097
H         7.45869624299524    5.70147037756572    5.14973098041930
H         5.80634612253425    6.03786904369113    5.66290193008636
C         7.27307087807558    6.05710927168903    7.26917803871881
H         7.10567894066590    5.00948708078734    7.53471904318832
H         8.34370372004313    6.26194484082492    7.36505491550983
C         7.21844855335477    7.17386300852374    9.48767041321755
H         8.29666812478970    7.22992819344790    9.30987971963335
H         7.03248687828646    6.33761327480081   10.16745463851833
C         6.75424147522763    8.49495633750319   10.11737298747593
H         5.69744013309537    8.44220244112867   10.38776434915585
H         7.32019516925020    8.67215277657321   11.03669853537427
C         5.14681505061334    6.58307403303938    8.34333798175703
H         4.64754090883301    6.55264648139650    7.37223909327158
H         4.61434249770847    7.32777914414615    8.93934665129691
C         4.92735923390161    5.22282357024920    9.01267782397518

