72
CSD_code = MUQQOE | q = 0 | S = 0 | Stoichiometry = C27H39Cl2CrN3 | MND = 5
Cr        6.75337778385947   10.85526817272163    3.10181101357535
Cl        5.72466204747209    9.28758279927890    1.94735933548871
Cl        8.02507138944508   12.03033681778807    1.74192017250160
N         5.26495454611055   12.07742727537680    2.70405521242435
N         8.27616331275014    9.60686271323267    3.52739938582095
N         6.64586190086990   11.08682662031175    4.93361874599026
C         3.13990579816376   13.80685591739061    1.93803217564455
C         3.89607094541156   13.09794483133665    1.00935578502873
C         4.91892690029163   12.26946788889039    1.42165567421488
C         4.53600991085179   12.76178816854404    3.59993675219609
C         3.50262036866900   13.60733964068132    3.27211758954162
C         2.00041500291933   14.73780468509991    1.57680610180530
C         1.75707536355574   14.79745717784722    0.06716410435110
C         0.71652837028433   14.24109898085334    2.25680868278885
C         2.33804555872099   16.15130292503979    2.07225059045412
C        10.36060247421426    7.91981673486203    4.43061095164654
C        10.56742341245642    9.26637963297287    4.12783418023137
C         9.52566139631689   10.05462609993709    3.69039712456328
C         8.06984289163439    8.31933371490611    3.81550654789271
C         9.05733639754212    7.46188364760361    4.25875013819625
C        11.50810096613672    7.05016890349561    4.90403961380761
C        11.07106600093958    5.60980132760330    5.18132217569695
C        12.59224510171870    7.02875780932822    3.81735472938907
C        12.08053313167778    7.64355479593251    6.19926978160596
C         6.65494723596719   11.28770312662352    7.76046253876320
C         7.40519895496858   12.14396722531826    6.95131895311053
C         7.37517366460863   12.01886317002976    5.58162112317873
C         5.91305573123993   10.25829724135572    5.70891988228676
C         5.89759281932951   10.32606244470438    7.07957997283899
C         6.62492440170621   11.36073844206781    9.27385756523659
C         5.18067416494870   11.60318638923705    9.73618289418828
C         7.50127113212051   12.49159856671095    9.81788033728551
C         7.13589194333324   10.03114897524432    9.84751725595287
H         3.70586969125031   13.17547252866956   -0.04770306850142
H         5.49454753294612   11.72781613359756    0.68382323065218
H         4.79736604645975   12.62249473978717    4.64080449291656
H         2.98111502730128   14.11071316320190    4.07128216649435
H         1.49859079016713   13.81666287201972   -0.32480281826955
H         2.63503331038801   15.16979776597218   -0.45520666715362
H         0.92974664351577   15.47269466820353   -0.14130030624813
H         0.48927923972893   13.22687080629003    1.93553335469449
H        -0.11996840063886   14.88356153333632    1.99055588571794
H         0.81579878383631   14.24224272259764    3.33883307205503
H         2.46877195284745   16.17115070408938    3.15082956036944
H         1.53689667929231   16.83980520788938    1.81236342969509
H         3.25846498557510   16.50175044437934    1.61013640831973
H        11.54336888776074    9.71474713330932    4.22604575770859
H         9.69403570871724   11.09207910695765    3.43794165012323
H         7.06325912348714    7.95543506818233    3.66406170670297
H         8.78854894428011    6.43884601140716    4.46091323908816
H        10.31432929999597    5.57326570503359    5.96169975898364
H        11.92788181994329    5.02923399074342    5.51649122510874
H        10.67911316434961    5.14104523290308    4.28191033411445
H        12.18744839009738    6.62935943834119    2.89004231111033
H        13.42227677298354    6.39971044181577    4.13122591391884
H        12.97537815546560    8.02599805473815    3.62012184749311
H        11.31105049774094    7.68533772377145    6.96765679196222
H        12.45996807670098    8.64911592877480    6.04027548389452
H        12.89764043006967    7.02463156454412    6.56299088391796
H         8.01815340687567   12.92132629099183    7.37531107484532
H         7.94250042978924   12.68539623710175    4.94090276261550
H         5.31967557200454    9.52799396703049    5.16914853330542
H         5.28321165236973    9.62297909156894    7.61933935893645
H         4.52433091482386   10.79483899113436    9.42614293731369
H         4.80134894539699   12.53214050376531    9.31557219554396
H         5.14285600448775   11.67523363970618   10.82084115792442
H         8.54265056873851   12.34863153451563    9.53908669915850
H         7.44317991144553   12.50469649777721   10.90412951723361
H         7.16342864810174   13.45832694918843    9.45185134384191
H         8.15352772205055    9.84249806166355    9.51165398618383
H         6.51244534856389    9.19916728543024    9.53172763491042
H         7.13224830085559   10.06697939724913   10.93465006557567

