61
CSD_code = MUQYUT | q = 0 | S = 0 | Stoichiometry = C16H32O10P2Ru | MND = 6
Ru        4.02777877839061    3.25677304215173    8.01469108171304
P         4.76305420554330    4.24423539952241    6.11742947811775
O         4.91042244474033    3.09312563003450    4.96971377109002
O         6.15078376376163    5.05140285836840    6.03947850616029
O         2.60123443637102    4.77029112407144    8.30979601670004
O         3.95186148159774    5.42114305843789    5.38246193359003
O         5.46345966798032    4.26960078897473    9.16482584400458
C         1.75706828980895    6.85304435479022    9.01262936800581
H         0.86823570860793    6.46084548295676    8.52505387629914
H         2.06037410553802    7.77506707802440    8.52191170774866
H         1.53147191666327    7.07505406623216   10.05287512052220
C         2.87782003411074    5.83026764405619    8.92833755760069
C         7.29887106622248    4.47167754534591    6.64173236196658
H         7.91924164203382    5.29185878560555    7.00454765065100
H         7.85525886939932    3.89031522646407    5.90226538578361
H         7.02014895808005    3.82090857209711    7.47447619403961
C         5.24666704353537    5.41489265896507    9.63723205404987
C         5.36014971701828    3.43180156326826    3.66722426426783
H         4.59309740124927    3.14451036707672    2.94527269778702
H         6.27790556468456    2.87907898010320    3.45662163736970
H         5.55376547094795    4.50373044361413    3.58645842021883
C         4.08223349139893    6.18119408397332    9.54285581287747
H         4.10905370534643    7.14998089678354   10.02046580618474
C         2.55214901257857    5.25550312749812    5.20794973979026
H         2.12086833935610    6.25487946340450    5.14480944520664
H         2.11419986263019    4.71211588339621    6.04902322497357
H         2.34852744373099    4.70807967402282    4.28423031935082
C         6.40077578810372    6.03802346581312   10.40496994728517
H         6.09239331780802    6.26504579785623   11.42268440811248
H         6.70838473866068    6.96389983128552    9.92434123510747
H         7.23925938817637    5.34661450686541   10.42656054075453
P         3.29267023905227    2.26862633075689    9.91184774513047
O         3.14505283548557    3.41948574486231   11.05977410363185
O         1.90517767336817    1.46103709214370    9.98969261836320
O         5.45407715372411    1.74290222743859    7.71962843543065
O         4.10430570266236    1.09186035656753   10.64654733406413
O         2.59219929013741    2.24372226441916    6.86451871851925
C         6.29795813111606   -0.34031589881221    7.01752917358822
H         7.18539763754357    0.04992001115307    7.50919522978141
H         5.99286331710275   -1.26405872895545    7.50382881818032
H         6.52682548084074   -0.55855278970405    5.97717502307463
C         5.17732011383365    0.68262339871201    7.10165465168279
C         0.75694706011156    2.04049149148486    9.38744371409145
H         0.13687610333548    1.22016768086532    9.02443309616439
H         0.20031342764150    2.62152582503914   10.12698189641631
H         1.03548724043825    2.69152766386869    8.55484107016411
C         2.80870353040226    1.09824731730069    6.39241769510588
C         2.69531155417460    3.08043400812751   12.36215543518967
H         3.46187014671220    3.36865279017533   13.08424894484970
H         1.77688985972958    3.63214319536453   12.57249558375539
H         2.50285307161667    2.00829676617295   12.44296914148837
C         3.97290525981739    0.33168217872792    6.48718545216187
H         3.94591980173969   -0.63726403703411    6.00991289201463
C         5.50390113714513    1.25821589543401   10.82132363838485
H         5.93560591428895    0.25905185347226   10.88485770015786
H         5.94179806389962    1.80156856594241    9.98019583820808
H         5.70706257045047    1.80601960008399   11.74491666613685
C         1.65452273195833    0.47517515319628    5.62472943203793
H         1.96301803375939    0.24749261007492    4.60719813307765
H         1.34644065500390   -0.45033285927631    6.10576383370211
H         0.81631060883675    1.16689289134163    5.60261257811796

