54
CSD_code = MUQYII | q = 0 | S = 0 | Stoichiometry = C24H25ClN2RuS | MND = 9
Ru        6.39720128138401    9.57247377834110    3.69621067838919
S         7.04321522068638   12.94993845070859    0.73832046217641
Cl        4.07959100817549    9.88609511836469    3.35513863109904
N         5.99576620251603    8.11040249833208    0.94387759515782
N         6.51171362724102   10.19480650009716    0.84647760236911
C         6.34141159885187    9.16307522509835    1.71406898930024
C         5.98142756618997    8.47713526599834   -0.37752872554062
C         6.30227487239645    9.79407031592293   -0.44093764720708
C         6.72963466601812   11.41154580727962    1.46623654929551
C         7.11640437107112   13.64109081320874    2.31886299934301
C         6.91886129516602   12.73248363226408    3.30962815093194
C         6.69863042003649   11.41224709723507    2.83622643308190
C         5.65444511749260    6.81201717765283    1.45247304790551
C         6.85665449298900    5.95022998570080    1.76194305413895
C         6.67730144756914    4.77899210850518    2.48931016870443
C         7.75574981484045    3.97151625621152    2.80042302997658
C         9.02968714289123    4.32531568586756    2.38661090078980
C         9.21445785460317    5.48525045650103    1.65532334753125
C         8.13387116630490    6.29402364509081    1.34267318670199
C         7.50541439384465   10.14479410107280    5.55707585301030
C         6.24814138450424    9.67142059560232    5.95244677657861
C         5.82653619941469    8.35399832142746    5.60741471127978
C         6.67527028511843    7.55608954890644    4.83700908661239
C         7.89700758359722    8.08313349443700    4.34087569336528
C         8.36115791574222    9.36339598855556    4.73676782602383
C         4.50328265019985    7.84858446529833    6.09426657281424
C         9.75437894736427    9.83715927663557    4.39253237001588
C        10.02222045743904    9.74853334352393    2.88904829342284
C        10.78810555288796    9.02733620638190    5.18202254918298
H         5.74468373182727    7.78393966426254   -1.15851702978293
H         6.38516727870023   10.45975330489749   -1.27509242955365
H         7.30200899308921   14.69386249473708    2.40711671852213
H         6.91766537424212   13.01405566110962    4.34895817440501
H         5.02070105940037    6.30497485189729    0.71714451844979
H         5.06233940981725    6.95978657281162    2.36439016464088
H         5.68328767007807    4.50216184799600    2.81197504011256
H         7.60350193230895    3.06594638971319    3.36891933413348
H         9.87331148487428    3.69786982019974    2.63233951759869
H        10.20461666700591    5.76530460978355    1.32589719748871
H         8.29217519873668    7.20010153632452    0.77611079619533
H         7.85823131279567   11.10275321826475    5.92572837431779
H         5.62490346089743   10.26871015122853    6.60953756308310
H         6.42226528826831    6.52187533614431    4.63503204863818
H         8.55468579197482    7.42267990809163    3.78556574906895
H         4.42490448248357    6.77008776212871    5.97050110622187
H         3.70648381769684    8.32339882043953    5.51524720898011
H         4.35426914654849    8.10148609507709    7.14328868706119
H         9.83883253757110   10.88932601210250    4.68835671349365
H        10.04798769466190    8.71308111718327    2.55772589599163
H        10.97834521263944   10.20871026437005    2.65108623173902
H         9.23530276649455   10.26994105151738    2.34439988952641
H        10.60610164816229    9.11265011719004    6.25161992406150
H        11.79039957044991    9.39332966526812    4.97251411813778
H        10.74111393273947    7.97525856703674    4.90815630101663

