60
CSD_code = MUQZAB | q = 0 | S = 0 | Stoichiometry = C28H27ClN2RuS | MND = 9
Ru        6.30265761559258    2.41666474120287    1.74493549203668
Cl        7.88444079798164    1.07416709977254    2.87177748897044
S         3.12204601720398   -0.31347514497181    3.46108777935153
N         4.68573378793500    1.93061595663745    4.11453147790411
N         6.00044542075100    3.59334674710505    4.61030534722313
C         5.63585198000663    2.76320123811039    3.60437239213148
C         4.42186234870418    2.23141849725980    5.42601034526653
C         3.54946896461966    1.69484464616904    6.35951002678416
H         2.91234198517306    0.86166729975744    6.10991939825887
C         3.53861481773659    2.27381541765849    7.61500175502461
H         2.87358875861623    1.88458475636609    8.37037250348592
C         4.36534590410341    3.35051566511554    7.92925098244917
H         4.32168955469477    3.77447684042975    8.92086626605457
C         5.24080177138191    3.88976710775433    7.00363686057191
H         5.87275591992182    4.72678010050905    7.25697462722419
C         5.26692402249963    3.31433418793625    5.74342085542189
C         4.30699626996488    0.92644062487336    3.24077758057088
C         4.94502760686271    0.90546175643819    2.02934826599992
C         4.46371913132037   -0.18412364132150    1.25839064418654
H         4.82328990338540   -0.44010234822145    0.27617267316618
C         3.50098410291070   -0.90976194212008    1.88500963918932
H         2.97720952521977   -1.77402924789281    1.52593905210901
C         7.04574224550689    4.57223215467407    4.50673767963075
H         7.81552829566799    4.15975590026541    3.84232322235034
H         7.49611265321992    4.70695446825204    5.49582782444896
C         6.57192739990603    5.90495906794748    3.97667827955931
C         5.22258749901196    6.21271382748021    3.87300333371202
H         4.47810348897293    5.49490197542909    4.18543633175172
C         4.82084338830831    7.43658696392073    3.36334319949455
H         3.76733686392223    7.66259532524145    3.28403579185878
C         5.76196441341346    8.36569666958769    2.95616371530502
H         5.44725245350275    9.31777752238381    2.55572722180595
C         7.11071284806522    8.06961204623103    3.06800694866043
H         7.85069998574153    8.79206425684389    2.75664267319313
C         7.51183129745399    6.84731428077413    3.57518622535172
H         8.56456030892765    6.61774202141468    3.66391123655055
C         8.08715040526189    3.15814522390378    0.41942991748731
C         7.28304246423698    2.22364172041913   -0.29220232886470
H         7.76085311532731    1.38414344704476   -0.78573024053893
C         5.90999040544278    2.44945581265122   -0.46318032100911
H         5.33408949241142    1.78921451572022   -1.10405714502244
C         5.26896833742282    3.56773539153913    0.12673083860562
C         6.07200076249416    4.45043188032871    0.89594604646248
H         5.63464866673516    5.36044873416121    1.29363266271854
C         7.47847640669138    4.29035197819628    0.97066108496203
H         8.07866612413214    5.06430990720388    1.43419637820414
C         9.56224721116692    2.92808647129203    0.53861786064852
H         9.97967792922147    2.58964559474524   -0.40864863546772
H         9.74042597410854    2.14889467654914    1.28506426056731
H        10.07697584913081    3.83292134986965    0.85602800709231
C         3.81108964870628    3.86385913393155   -0.14006949449070
H         3.37938771439207    3.00398399673049   -0.66557671030564
C         3.03333988844343    4.05905772975749    1.16274886012649
H         3.18324366993004    3.19751707344896    1.81347646657278
H         1.97089775307774    4.15996938042231    0.95378499779465
H         3.36676145468278    4.95287668739137    1.68511990824666
C         3.68577304431965    5.09582039847234   -1.04242057037415
H         4.08801392113543    5.97727916187854   -0.54711344798586
H         2.64089322741476    5.28153361209025   -1.27939338314147
H         4.22928718589767    4.94585928323578   -1.97328014934529

