60
CSD_code = MURBUY | q = 1 | S = 0 | Stoichiometry = C27H28ClNPRuSe(1+) | MND = 9
Ru        9.86754626500473   10.01206962348041    5.56502070639531
Se        8.52499084090761    8.83396978213587    7.32354490854426
P         6.86179128101678    9.10378104597088    5.99976568999938
Cl       11.09500646767347    8.03098506535821    5.37284546776269
N         8.76848022346310    9.13754086852639    4.14527561641746
C         7.49748788644386    8.73232346417132    4.33046014514576
C         9.33803021715892   12.27383719559380    5.83383611465232
H         8.40732965281105   12.80166635093680    6.00648934363424
C         6.23874467828735   10.81135580139301    5.92461694267230
C         6.78623710667367    8.01820173574170    3.37877026195327
H         5.77778437428612    7.69962604998454    3.59785602844852
C         5.44890551343802    8.02410098706209    6.32813723088153
C         6.08685382828054   11.48191394334798    7.13374450479728
H         6.36641954230830   10.97991404256157    8.05190130546955
C         5.64472626970187    6.87388760625618    7.08416310250504
H         6.62950871493287    6.65746666899467    7.47900248754991
C         5.89215051254309   11.42222545329972    4.72454128826614
H         6.00584070907851   10.88954659726882    3.78945603318394
C         9.35105827303679    8.84311863427961    2.97880178542858
H        10.38642740695406    9.14280676195487    2.86720183127175
C        11.88738407210180   11.15353234085401    5.44685479600502
H        12.89396515277216   10.78199156834925    5.28469903360497
C         4.18956472696830    8.34401949929296    5.82671598168676
H         4.04438746632331    9.25171414277123    5.25686231287243
C        11.39674767774594   11.27310940664935    6.76533990010797
C        10.09532529897628   11.80551532134596    6.93153159226373
H         9.71008542008936   11.96390260385941    7.93395150831271
C         5.59051604969318   12.77265329333104    7.14186839699518
H         5.46850109515042   13.29829354286214    8.07624012521599
C        11.10966562831906   11.53838479128767    4.34106728898662
H        11.53593956458199   11.49708803266647    3.34414479078843
C         9.82749340912294   12.12465403402958    4.52348988386758
C         8.70140140106933    8.15387913232339    1.97191458382834
H         9.22371466277093    7.93717806226422    1.05431246716266
C         4.57510726487410    6.03188008127570    7.32872807288946
H         4.71870230297211    5.13818798470272    7.91551351443355
C         3.32137546446440    6.33986436180328    6.82287883006205
H         2.48788769751154    5.68250311901814    7.01597760318806
C         7.39495740824957    7.72654530828374    2.16860026516862
H         6.87099565642342    7.17164557380268    1.40710231884520
C         5.24755299693132   13.38810484066348    5.94656029541722
H         4.86013381797601   14.39508772032077    5.95226393150979
C         5.39683532509739   12.71540950331132    4.74330196921096
H         5.12169836591300   13.19745337086262    3.81713700382696
C         9.08176603992207   12.68201151297433    3.35014418030143
H         9.19130647433899   12.04799901565617    2.47147799179616
H         9.49045022699487   13.66314560537899    3.10343282245444
H         8.02446336200572   12.80292153419962    3.57618257205854
C         3.12851790886388    7.49314660250895    6.07647857076462
H         2.14862933680205    7.73206733079922    5.69265108417695
C        12.25788159639627   10.90672787908363    7.95170413447724
H        13.22117287215469   10.55158660373560    7.57029816321425
C        11.62679999082128    9.77209541399004    8.76267317419669
H        10.67894901454302   10.07821180029056    9.20566367692066
H        12.29638542273721    9.47505809780931    9.56475723298289
H        11.45283195779553    8.90262771409973    8.12563061010401
C        12.51018752150301   12.13721157777194    8.82809120634422
H        12.93973644964015   12.94695772215806    8.24198154348964
H        13.20721352400965   11.88170438531585    9.62113778407515
H        11.58965061141279   12.49019188992193    9.28680799145876

