60
CSD_code = MURBOS | q = 1 | S = 0 | Stoichiometry = C27H28ClNPRuS(1+) | MND = 9
Ru        4.13656951816055    2.36544919300386    5.50231231502627
P         1.18752000616074    1.48196494972053    5.96384093854320
S         2.73181560280677    1.25768379420923    7.19618782687999
Cl        5.31365193133146    0.35757149423159    5.35494667284589
C         6.16486202656655    3.46130718153698    5.36520029633485
H         7.15690265162333    3.06346318676461    5.17725615736185
N         3.05314296256141    1.49260636653092    4.08079339156706
C         5.37735506779847    3.88913593232432    4.28150179573014
H         5.78471698902337    3.85724799140612    3.27602899075737
C        -0.18546283762172    0.37963697279480    6.35840424104379
C        -1.48948559420780    0.72159623345409    6.01068193634318
H        -1.69136400049300    1.66352775275862    5.51941553136402
C         0.55404608651833    3.18361639127096    5.88796939704838
C         0.41164865253021    3.85777888594452    7.09706364591393
H         0.70196646636039    3.36242271308882    8.01466109194416
C         0.19234072580211    3.78844088792147    4.68950540026730
H         0.29718463131252    3.25171597691309    3.75608633557923
C         5.70387801094426    3.57389547629241    6.69752985830406
C         1.78516832330980    1.08692707821730    4.28433657161474
C         0.09114050950452   -0.82103338582019    7.00532954721912
H         1.10968282676799   -1.06019134784485    7.27738248262515
C         4.41980352941310    4.12966478214249    6.89657794216364
H         4.05436221861759    4.27616359021888    7.90786914182919
C        -0.44766710401975    5.75607526999439    5.91081374432145
H        -0.83929863093275    6.76145190822094    5.91702310926714
C        -2.51834521762504   -0.15210759834181    6.31071491378472
H        -3.53300068435851    0.10451019354930    6.04779446839097
C        -0.09005628607026    5.14647968472617    7.10486149048224
H        -0.20506852596353    5.67517850395693    8.03844230733261
C        -0.30777796876389    5.07964700246114    4.70844837928161
H        -0.59444697147585    5.55703334235368    3.78342996393227
C        -0.94740464822904   -1.68537910028412    7.30009152334573
H        -0.74278619866968   -2.61733841483283    7.80347597070471
C         3.65511571125373    4.63913652283384    5.82011323613485
H         2.73941322138031    5.18253444515827    6.02129851794130
C         3.36839219210753    5.11860043188124    3.35280319590590
H         3.42560404607566    4.48992673256228    2.46563523628643
H         3.81521164305623    6.08247559839266    3.10458879769715
H         2.32420397154971    5.28442593878751    3.60829669614067
C        -2.24768129633736   -1.35174771955355    6.95255791537617
H        -3.05604964430522   -2.02688915637751    7.18683844451618
C         5.87937383025965    2.08850037654990    8.70574591741835
H         4.99422833968525    2.48352887108288    9.19919870390918
H         6.56075027047496    1.72340028001983    9.46875094444265
H         5.58346536841795    1.24648427974011    8.07967676120219
C         1.06098048854853    0.36589483832531    3.34853165815482
H         0.05517745792914    0.05018514179786    3.58333144167133
C         4.11755847733351    4.51405701623677    4.49970932339806
C         6.57378706587446    3.15835629113568    7.85948288308748
H         7.49342013175682    2.72382841739884    7.45405540468656
C         1.65500604581821    0.06644691183277    2.13258818334832
H         1.12160071755365   -0.49303415202068    1.38102404952313
C         2.95979957856809    0.49042242805821    1.91764305064396
H         3.47021192577363    0.26552850045426    0.99529331725896
C         3.62304405676712    1.18650930852038    2.91132038419667
H         4.65827198280276    1.48193928046740    2.78853543385490
C         6.94654136147644    4.38033270844676    8.70439559309381
H         7.43418663953947    5.13746432644067    8.09400638945654
H         7.63167556943087    4.08206164790023    9.49273991321204
H         6.06651677853709    4.82108784502438    9.16686122831645

