60
CSD_code = MURBIM | q = 1 | S = 0 | Stoichiometry = C27H29ClIrNP(1+) | MND = 8
Ir        7.55233020255602    6.32330264725778   12.95387418680250
P         7.90653060429478    7.02545843276996   10.76043860356943
Cl        8.27806790604582    8.52842101610305   13.36210975566919
C         9.07390449187321    8.15659198795302    9.96626483343079
N         5.85538861420210    7.42429103510708   12.15681707953921
C         8.05317681646455    5.45955629086789   14.98325071147792
C         7.52623144340080    5.78936382707816    9.48631684712696
C         6.89662317695871    4.24919206024279   13.37081611528021
C         6.76539784103398    5.01464257597723   14.59661578569610
C         6.31793305610581    7.90993188008159   10.98723260035523
C         8.27379708978045    4.22093113488911   13.01611740811699
C         8.98837706099564    5.04287750489536   13.96369834400430
C         8.88931448922133    3.40001604097592   11.93479791301777
H         8.21314551481398    3.27566444162321   11.09205384804337
H         9.12430059026283    2.41070759927526   12.32942037046368
H         9.81218425912446    3.84801805275468   11.57567071588436
C        10.47016218731124    5.17484655741804   14.07769180036877
H        10.95315792919002    5.08196426051112   13.10858815416681
H        10.85601351076556    4.38892447152021   14.72851691478968
H        10.73751199255196    6.13480265529195   14.51220003921677
C         8.43130556211017    6.16436417652470   16.23906985650771
H         8.94692024331296    7.09809483381465   16.01874293792747
H         9.11009396081715    5.53694838761501   16.81648735587282
H         7.55932306709085    6.38645574786655   16.84675584589940
C         5.81544249203173    3.44056815816118   12.73623863177466
H         4.84921859864196    3.93306459860989   12.81758459272614
H         5.74219784753397    2.47444878680494   13.23742529880240
H         6.02651908637286    3.26103236720024   11.68455249286187
C         5.65060052986652    8.88611090504761   10.27521779822822
H         6.06083262343294    9.26956250607164    9.35448330044479
C         4.71156445618585    7.87829440874470   12.64445278434830
H         4.37791943613735    7.46587684284669   13.58627581390932
C         3.97565678595225    8.85341542778421   11.98600321182142
H         3.05229705635305    9.20921272389101   12.41349923600058
C        10.21086929359472    8.58621393069092   10.63942797279752
H        10.39250141689085    8.24966809046486   11.64896479315606
C         6.24859452298830    5.24679675912859    9.37839721920325
H         5.44944989587633    5.61943108205408   10.00470071542886
C         4.45363089763629    9.36892664118292   10.79194357371466
H         3.90737457427830   10.13998411660235   10.27081727010064
C         8.55923767316518    5.29126296363508    8.69723109543222
H         9.55342722823696    5.70482028412063    8.79487862155021
C         7.02890701168285    3.75900699648192    7.66451484891657
H         6.83285458139724    2.97347864999932    6.95151375514015
C         6.00218964387154    4.24065492470924    8.46229896439224
H         5.00798890845328    3.83032202312282    8.36974692942800
C         5.51582377365070    5.13899065601002   15.40148308722559
H         5.47619057526784    6.09173129408832   15.92496626985792
H         5.48692535328610    4.34361814003946   16.14780352189510
H         4.63087104402276    5.04182794935312   14.77724198046367
C        10.82589135365956    9.89568257102876    8.72471128532566
H        11.50676091716703   10.57842545064816    8.24030847358233
C         8.30636412348326    4.28299901383030    7.78460274771820
H         9.10648951595132    3.90418126018644    7.16765322428963
C         8.81794004917820    8.58374901214107    8.66390187672334
H         7.94718607954425    8.21933795113844    8.13517844152952
C         9.69518789029128    9.45767378367708    8.05080664059432
H         9.49993214725719    9.79587456364224    7.04450398691463
C        11.08514792249610    9.45760276953353   10.01297584403212
H        11.96772308391522    9.79748477881964   10.53264567656187

