88
CSD_code = MURCOT | q = 0 | S = 0 | Stoichiometry = C44H26F8IrN5O2P2 | MND = 6
Ir        1.95212758425739    7.17705460978875   14.18766748570248
P         1.81729987544359    9.67979258983113   12.06570422637398
P         1.86794584340024   10.37554858098981   14.79745588632105
C         3.23254900642946    8.45410274774487   10.02921316937917
H         2.37632871075447    7.79578203867618    9.99056183627413
C         0.07869379102246   10.61019709963123   15.10825327639240
C         3.25964543016521    9.47250219980617   10.97191475522922
C         2.66307736196824   11.70278557008060   15.73581064896547
C        -0.45696879349778    9.93642343522932   10.44911632861307
H        -0.63919265511513    8.90070370680547   10.69501076759041
C         4.34417052232272   10.33347031075086   11.04071749137008
H         4.34229605885542   11.11444118238234   11.78602472091618
F         6.41229468603344    8.97998372803660    8.41633920016413
C         3.38590939086717   11.41087617818555   16.88191637212485
H         3.47068111682218   10.38232414880607   17.20160416058935
C         4.29274754169186    8.27831008112472    9.15995895726574
H         4.29832273883896    7.48885411946043    8.42516872182437
C        -0.80457002710484   11.00302729433440   14.11702559715543
H        -0.42834431651747   11.21779947526633   13.12665750666038
C         0.91998142244086   11.89891016865666   10.66859401128892
H         1.79442043762632   12.36922298988367   11.09374792916812
C         5.41076632340456   10.17577234135575   10.17553650870157
H         6.26701758047112   10.83134408059340   10.20616136250165
C         0.65973960518394   10.56942359663425   10.97356097036487
C        -0.38397759971018   10.33951030175292   16.39011193168064
H         0.32035503461112   10.03346711711435   17.15021739184407
C         2.53753124973844   13.01383908383976   15.29874890841921
H         1.97365384776431   13.21427301474357   14.40028495226646
C         5.36639431363498    9.14714330481937    9.25020048412294
C         0.06263256746529   12.60458313558980    9.84691384154778
H         0.23907363672277   13.63861087102771    9.59526900364641
C        -2.59510988188041   10.83132723434897   15.67185673286767
C        -1.72918827260501   10.44880596723996   16.68299551738706
H        -2.11308326658080   10.24443823557007   17.67012388712694
N         3.78001360957628    7.24533393985980   13.37323080985300
O         1.20763312293946    8.35076046274530   12.41177763144944
N         0.12938785352805    7.09231039221124   15.00817186636468
O         2.25278400074162    9.04908179106816   15.39174581143626
C         2.41010276273339    6.19032928726113   15.86536242001673
C         0.06577975969941    6.67902954966458   16.29440680413784
N         2.28975990310012   10.66881396685416   13.26103778431089
C         4.69052244149228    8.15946646404708   13.68550284938813
H         4.43679189151617    8.83603320671905   14.48955655972498
C        -0.97078317537368    7.53002514464582   14.40667949479310
H        -0.86055326207466    7.83574627237762   13.37611977785657
C         1.84361590328343    5.54161349278546   13.04233275403198
C         2.95299297641543    5.41164714556739   12.16570836510780
C         3.63629042824414    5.68873538760328   16.28761268976244
H         4.50067373767710    5.66227887494521   15.64411701533750
F         4.90412854661992    4.72454011352580   18.01612770120809
N         2.76145449040529    5.20626129275449   18.46294398754934
C         4.03711942688252    6.36176833967108   12.38193827740076
C         1.33763625218799    6.17172984760670   16.79581293915875
F        -3.91259810132061   10.91790186136744   15.94374674654154
C         3.73920735226075    5.21254162811729   17.58443815412012
C        -2.27575575299636    7.19310258711390   16.36829930406579
H        -3.21387936694106    7.23440105220014   16.89967753440597
C         0.79301796091597    4.64350047710342   12.88441835968417
H        -0.08392348140259    4.66674100255427   13.51101855129414
C        -2.19661135787813    7.59261048157984   15.04258682579480
H        -3.06525561874279    7.94503564576949   14.51087198009622
C        -1.13482109788861    6.73158426565708   16.99962109664749
H        -1.17735693130597    6.40991832571234   18.02593555554817
F         3.87621528723898    4.26295858710213   10.29779074790302
F         0.64991666271060    5.65119647407166   19.01315703993604
F        -0.10882354346804    2.81935029814885   11.70827369312345
N         1.89308755045591    3.57868890700275   11.04441030515503
C         2.88961427005591    4.41692735271921   11.19158059461916
C         3.13725849695442   14.03984994838487   16.00287068273684
H         3.05844623824849   15.06816033500720   15.68639083960271
C         1.60187438963182    5.67388367966922   18.07067945468841
C         6.18845699524452    7.35639885998464   12.01821586056951
H         7.12830332486071    7.39596914405489   11.48978443062315
C         0.88524207239538    3.69357548107863   11.88054915538804
C         5.90676589230595    8.25590561079086   13.03455914177726
H         6.61376879725211    9.01595316728318   13.32399194920778
C         5.24521777392271    6.39934470623523   11.69010315972711
H         5.44710509729061    5.68915506050314   10.90716221398860
C         3.85531317129446   13.72627125933134   17.14544011457281
C         3.99233263601977   12.42635123701005   17.59929470835578
H         4.56190836384778   12.22704233718917   18.49348556834137
F         4.44095877069481   14.72295082675899   17.83774049994977
F        -1.89146213751693   12.63567263103600    8.53714607687898
C        -2.15623550440751   11.11386899747193   14.39069827897593
H        -2.86272779468863   11.41437161183148   13.63275803340327
C        -1.04918891240334   11.95348141623306    9.33736117356277
C        -1.32535598442529   10.62813646461695    9.62396442743931
H        -2.20128705272016   10.15944276729507    9.20344766053043

