61
CSD_code = MURCEJ | q = 1 | S = 0 | Stoichiometry = C27H29ClIrNPSe(1+) | MND = 8
Ir        6.43726230666779    9.27659611681343    2.91889403003021
Se        6.60767942164141    7.40712111908344    1.08917495133194
P         6.18658680263689    5.99350176863489    2.63188267212018
Cl        4.41930766215986   10.00669952068809    2.00251722105265
N         5.13125323938744    8.06162794225562    4.01560218887091
C         4.23472517538854    2.16453717224014    1.07249565952761
H         3.77111965014828    1.26494003783506    0.69854466792139
C         5.66933307925958    3.24779815938487    2.66391036341700
H         6.32392556295392    3.20408741467603    3.52357193216825
C         3.24581308376415    7.97540892015327    5.47700308354633
H         2.56951864777539    8.51079221655612    6.12315917815044
C         4.60125746260261    4.52868635868441    0.91213585642926
H         4.43960454951185    5.47901135173260    0.42096636854672
C         5.06646736395147    2.10068344822423    2.18039723695848
H         5.24936390551132    1.15484310346693    2.66664801305460
C         4.26723249819608    8.65717024516362    4.83960706338247
H         4.38333792476570    9.72247500430781    4.97180587113384
C         8.73343456894274    5.03995778442039    2.91963588389206
H         8.66975332104100    4.94987840474611    1.84265352320762
C         8.21025107818553   10.38437493399803    2.23999388364891
C         7.63730098872745    5.52776240723781    3.62457924816046
C         8.84667399591516    5.31129893307098    5.67858827035012
H         8.89484028817831    5.41538835785639    6.75212398867227
C         5.43121021150869    4.46244342608977    2.02652691329264
C         4.99888268647957    6.74122857230529    3.81366015126981
C         7.34352157698292   11.33890955600073    2.83620366855147
C         4.00226350847704    3.37578589042158    0.43881105588458
H         3.35888633271904    3.42116913329323   -0.42593033357426
C         3.09781585775644    6.61476481964826    5.25439048574275
H         2.30174392523573    6.05711330854101    5.72209613176256
C         7.68997962594714    5.66867221110518    5.00542814724584
H         6.83465578421737    6.04611418370248    5.54902498712862
C         3.99567316956900    5.98823825517643    4.40503525334650
H         3.92757261128109    4.93166323972702    4.19210203632602
C         8.79759263417455   10.46540492372901    0.87079396952180
H         9.09467563525263    9.48255976634736    0.51192699291691
H         9.68228525630284   11.10351981154547    0.89195400844303
H         8.08571569385357   10.88724816882797    0.16584896162591
C         7.99622665990027    9.80955338205426    4.47792353759848
C         7.12585492222086   10.93341580014780    4.20008682094894
C         8.64924541397507    9.45893894683743    3.27669104301994
C         6.78839200689928   12.57307317272719    2.21655842025511
H         7.20296708751720   12.73279920161895    1.22607321529622
H         7.02341790723186   13.43257870474153    2.84323531300920
H         5.70414446753729   12.50914886143836    2.12790355528961
C         9.88168799486136    4.68091695777645    3.59987233546808
H        10.73214337098825    4.29691973990201    3.05859426790172
C         9.93754636509126    4.81891944997824    4.97938359208984
H        10.83448217365145    4.54241189328144    5.51138962720852
C         9.75204340744665    8.47142547016045    3.10417157581142
H         9.79040883645242    7.76513154851250    3.92933021810611
H        10.70411808760959    9.00183970301192    3.06170032062467
H         9.64064540334190    7.91549764809389    2.17494608906039
C         6.38801532895393   11.74699904520686    5.20832494631594
H         5.47061888071210   12.14877059128163    4.78267933455131
H         7.00924597497592   12.59150271106502    5.51182709979282
H         6.15127285727424   11.16976666666825    6.09887845564014
C         8.24040251647741    9.23331603702816    5.83185841301038
H         7.32648809019558    9.20150222741789    6.42196411389299
H         8.95828327172231    9.85971407472060    6.36319101108727
H         8.64993188810151    8.22828217862918    5.76695310892871

