37
CSD_code = MURGOX | q = 0 | S = 0 | Stoichiometry = C15H16IN3NiO | MND = 7
I         4.00151915331339    8.08465469952829    1.79439735967007
O         2.89263111818479    3.22045846352547    5.26606075238098
N         4.61081868527994    4.61405745891626    2.68560739055434
C         3.28996039557697    3.78881953181507    4.28203846628571
Ni        2.95283644958290    6.07188396398510    0.87601919746544
N         4.58672190558044    3.88040361920799    3.85317065665974
C         3.38327121733529    4.98360076062623    2.34912175990069
C         5.83569582431191    4.90152359875036    1.99796512220081
H         5.57715066158786    5.38476275631994    1.05017596274283
H         6.38817008776939    3.98251332728191    1.80001125662223
H         6.45132150289213    5.58966898015671    2.58052086583410
C        -1.04462766209360    3.85717469507867    3.78597128619355
H        -1.69647390246945    3.06278467830790    4.11643597591136
C         1.76148501127189    4.76813465627951   -0.19130960873814
H         1.22275972990747    3.89184101595813    0.13999467160904
C         0.32435246533247    3.65535376970001    3.77900569800021
H         0.74412430194421    2.71813817912146    4.10731708469168
C         3.08369605730710    4.73386779560512   -0.80023319223314
H         3.66016610599720    3.83521370165338   -0.95980486945690
C         5.74746122079473    3.46266479799023    4.58038540587202
H         5.38236107550027    2.98545966314115    5.48934962830919
H         6.37100297552062    4.31801985931500    4.84749456708623
H         6.33428106281136    2.74299637247294    4.00659314492638
C         1.15907310840297    4.67910446253073    3.35330649261757
C         0.63219945330976    5.89996082484621    2.94616230615824
H         1.29331086707544    6.71229025001052    2.64818630361859
C         3.36510880411779    5.99888457172702   -1.26870091658210
H         4.22667186627783    6.31275242083164   -1.83694186386666
C        -0.73830513065716    6.08489537753827    2.95077229876006
H        -1.14914634041650    7.03285620930194    2.63743811894094
C         2.25895356241281    6.84536751067769   -0.90219376194250
H         2.15516301418882    7.87625889899263   -1.21173370584218
C        -1.57765065761164    5.06462604844803    3.36700360696677
H        -2.64689248269011    5.21353977965858    3.37092126672800
C         1.22465936614393    6.04331464688516   -0.37207821335277
H         0.21811449399998    6.35828345482863   -0.14944050868632
N         2.56115463220802    4.48326919898655    3.31390999399384

