31
CSD_code = MURHIS | q = 0 | S = 0 | Stoichiometry = C12H11ClN3O3Rh | MND = 4
Rh        7.52829999177224    7.77655446469282    6.71726344595618
O         6.50581243095607    2.95089307776641    4.59440269222344
N         5.76898546255604    6.25962821244473    4.83944884493993
C         6.44052107460322    4.13407483729022    4.81427302936527
Cl        5.64362353015461    7.41014841471796    7.88754512191739
C         6.87253706162756    6.23749473884255    5.56570635443092
O         9.97609147190784    8.23166494631980    5.06371693584660
N         5.47789147071796    4.99698535241395    4.36507245646844
O         7.82298361216381    9.99885733498892    8.69672403075534
N         7.30315456831203    4.94345114627443    5.55690964760555
C         4.93749415836114    7.38981432704031    4.55144614810499
H         3.95276452624987    7.26703985962116    5.00590676583416
H         4.83427661689211    7.52848328530588    3.47376401039729
H         5.41981412193874    8.26857622289710    4.99623778288678
C         8.45822665370031    4.47560998091414    6.22520573511989
C         4.30115406991951    4.64229523775849    3.63152088030682
H         4.26758345165487    5.15351833727752    2.66708825455037
H         3.39844648196216    4.87149213240115    4.20151065976304
H         4.35773209462969    3.56652166378896    3.46593904544873
C        10.73923206587603    3.58913556109165    7.51832720567597
H        11.62907078140130    3.24347345317999    8.02206838195995
C         9.03641339776365    8.06390484196407    5.69910134842070
C        10.37567718577383    3.04329763104379    6.29890437808378
H        10.98175498832505    2.27211688802303    5.84840868720098
C         7.80392937222118    9.17249815057385    7.91239133470580
C         9.23909549517981    3.48415526223015    5.64501571343187
H         8.95207359055257    3.05829056455006    4.69730286446924
C         8.80832308422215    5.01541323274977    7.45935577057561
H         8.16547497045051    5.75836761468296    7.94046428075982
C         9.95429183627838    4.57323336242668    8.09626581303908
H        10.22577038193190    4.99200986465463    9.05321237974434

