59
CSD_code = MURHAI | q = 0 | S = 0 | Stoichiometry = C20H33ClO3SiTi | MND = 12
Ti       -0.11237138540981   16.00315700192695    5.38058696320942
Si       -0.12310341705974   12.63919341876400    6.01925902007377
O        -1.15695466077585   11.41008428562956    5.69714451802143
O         1.27924590709094   11.86934858694779    6.32663597843797
O        -0.49896239828772   13.45977185826802    7.38961158647007
Cl        0.26596863889123   16.59369027763422    3.23634541869594
C        -2.48812889822109   11.43478362224937    5.22747925918123
H        -2.65400519458773   12.36298846403462    4.66230231566375
C         2.00749516798097   11.00188239466873    5.47978505990815
H         1.35328206311131   10.66310657597559    4.66785215262766
C        -0.67184741441425   12.86751295864212    8.66792920546748
H        -1.14202143713186   11.88406792382765    8.53559658754299
C        -2.68479033327162   10.23966787531698    4.29921104588154
H        -1.98316106691646   10.29607874163587    3.47132544334917
H        -3.69784772480070   10.23056726900841    3.90681844997537
H        -2.50300906966374    9.31730659550252    4.84457846572812
C        -3.45555430904153   11.39100578157044    6.40758353152568
H        -3.27035204212559   12.23257625550213    7.07013798714104
H        -3.31067241058422   10.47132558644952    6.96903157247167
H        -4.48237307784617   11.43554672253306    6.05465148920542
C         2.45332253884294    9.79670366892453    6.30208390940922
H         1.58279466459623    9.30143080625681    6.72318935918079
H         3.09765956129951   10.12151890032956    7.11550806995698
H         2.99593635680245    9.09412709274355    5.67574741778885
C         3.19871018797077   11.75467794751509    4.89325478446352
H         2.85217527418740   12.61622289655599    4.32757229484365
H         3.76710035286792   11.10309610169065    4.23546009035155
H         3.84574465944708   12.10363828325663    5.69464775744165
C         0.67831046806479   12.67468531474316    9.35056733171782
H         1.31409644339673   12.07032750707555    8.71203962370004
H         0.54772571477403   12.17915840592204   10.30905529826339
H         1.15966143144142   13.63658682996875    9.50849595768013
C        -1.59586393997041   13.75185042789862    9.50111227038754
H        -2.52723743191059   13.93460608988085    8.97069931261782
H        -1.11780324557315   14.70696828185612    9.70457495625676
H        -1.81961499229530   13.26519565888075   10.44692188354975
C        -0.05280334163135   13.99948952627495    4.71907279232716
H        -0.86304355307184   13.86465251418802    3.99125452651526
H         0.87744024919312   13.89976831842532    4.14606805114743
C        -2.42225754560286   16.05086343538155    4.69121262012514
H        -2.81074993580404   15.58410481469840    3.79404174184766
C        -2.30542533272050   15.44875705457279    5.96500385479718
H        -2.62763987359851   14.45161620492574    6.22467901357344
C        -1.87596833891714   16.43867578441070    6.87199058995467
H        -1.82304031593605   16.32929398780146    7.94554552772043
C        -1.73112538982255   17.64817223325722    6.15713125967376
H        -1.53784642810570   18.62278237574138    6.58607805092885
C        -2.07772192164670   17.40903731472726    4.81918103831048
H        -2.12878355291893   18.14970494638996    4.03258158199328
C         1.11515557734874   16.12484151513910    7.40346952235961
H         0.76366186021615   15.80793536471485    8.37400102519454
C         1.10943595252502   17.44609840669469    6.91295962912641
H         0.75352361356548   18.31692604610556    7.44768372702261
C         1.80424123695117   17.46170434882708    5.69248368435434
H         2.02693070914565   18.33667834036108    5.09493789752850
C         2.26024208813272   16.15245766482386    5.43308601152426
H         2.90518398998013   15.86190180024482    4.61239238931920
C         1.83836677822272   15.32379980351821    6.49569358901486
H         2.13246849360745   14.29868178919661    6.65985550746453

