73
CSD_code = MURPEU | q = 0 | S = 0 | Stoichiometry = C34H28Cl2N8Ru | MND = 6
Ru       -2.84451325284229    8.58307614546315   16.84800100241013
Cl       -2.96265117528691    6.39323175755359   17.71701682113778
Cl       -2.48780160698892   10.88832662752810   16.49862945258943
N        -3.82462734912910    9.09571701520571   18.62861474015899
N        -5.57306117641725    8.45814057341457   17.26021929826846
N        -4.68376813830351    8.59619428878415   16.33220720952589
N        -6.53895372699055    8.75796256409757   11.09991237647123
H        -5.83821651744573    9.12617787619092   10.47183253129276
N        -0.81259592895008    8.58156284850426   17.36478834111327
N        -0.74415572967375    8.40081559465942   15.06288857835286
N        -1.99017706052839    8.09029459384678   15.21209468385728
N        -4.51635982501361    5.77339625129596   10.84171646273394
H        -5.37927656823559    5.32159934587036   11.11082114710200
C        -3.39379907014101    9.49995882657884   19.81309029931853
H        -2.38763767786768    9.89887230246911   19.84781162025722
C        -4.17454584438924    9.44367367524691   20.95195277059936
H        -3.77858900052875    9.78367981403270   21.89499908096358
C        -5.46810367939304    8.93348890228176   20.85509712720686
H        -6.08914678607053    8.85402809009296   21.73466089528353
C        -5.94614632507107    8.54989995226094   19.62485547388660
H        -6.94236035516654    8.16666638110996   19.48145942265727
C        -5.10248032606984    8.66031118998483   18.50874441144641
C        -5.20639045261240    8.66111373546692   15.04991047836459
C        -6.33125783300641    7.91597111313817   14.68337908618389
H        -6.79491060977001    7.28717088067535   15.42733703029638
C        -6.79152566258869    7.93142949227306   13.38747324465743
H        -7.60842942604415    7.28579255733118   13.10800843477671
C        -6.17453736622627    8.73859585814757   12.42401619075424
C        -5.08126462012557    9.52538526812931   12.81398061227796
H        -4.60997992508319   10.16779676478263   12.08434951660877
C        -4.59506277215784    9.48300108798438   14.09614033130286
H        -3.76604014591957   10.11190210361464   14.39009738374047
C        -7.70546740878943    8.32861069267183   10.48404829367555
C        -8.93733646890588    8.28312491132867   11.13619857655944
H        -9.01951150396322    8.61869709856152   12.15754556443903
C       -10.06373845526975    7.85375978909474   10.45944904562762
H       -11.01120905947207    7.82318848650147   10.97681327111432
C        -9.99075217651774    7.47972933627012    9.12814249888146
H       -10.87407640577414    7.14230311634599    8.60827624845392
C        -8.77818321521198    7.56497451090063    8.46325615837156
H        -8.71248623810048    7.29963848480161    7.41850141308295
C        -7.64670782302368    7.98997017681923    9.13015703404588
H        -6.70305856118733    8.06177059017159    8.60721502875838
C        -0.17321186659264    8.69774182847963   18.51794645489656
H        -0.75480998845611    8.50641783338377   19.41116198302901
C         1.16697673289855    9.02458324462780   18.60038361968454
H         1.64354814446901    9.10909470371885   19.56344349349148
C         1.87739982406757    9.24918352709805   17.42232094559007
H         2.91880566126556    9.53146466852015   17.46006931658430
C         1.23957927798948    9.09013811360889   16.21525468311996
H         1.73815255981910    9.22968356425761   15.27088942500779
C        -0.11746501381591    8.73213856764170   16.21113415068688
C        -2.56239644984270    7.49083556277095   14.10077727740905
C        -3.53042167085387    6.49521142636440   14.27535264943167
H        -3.77012519850821    6.15672591286283   15.27392084956725
C        -4.12783445549283    5.91973697753762   13.18261052912607
H        -4.86834909978155    5.14583079320117   13.32362773875785
C        -3.80538113504479    6.32480600847953   11.87946098404924
C        -2.82598389403841    7.31130589566966   11.71179562887123
H        -2.58697196602187    7.67249591054084   10.72452711832737
C        -2.19710674595094    7.86292019292636   12.80346407122943
H        -1.44968745144878    8.63121664973693   12.68131319205442
C        -4.24592548318857    5.74812311231601    9.48141112398444
C        -5.31767646253105    5.57299321449797    8.60272854521318
H        -6.31755637591386    5.47154295078374    9.00154280727194
C        -5.10773931914342    5.53178771824657    7.23904997137327
H        -5.94906300537862    5.40363271569181    6.57424541158576
C        -3.82677386328819    5.65285414352742    6.72502431813520
H        -3.66337562154871    5.62613897451919    5.65874885846075
C        -2.75588328257141    5.78463827340611    7.59292204841456
H        -1.75039628551777    5.84504060523722    7.20350571730323
C        -2.95458377098448    5.82465297459136    8.96045246631573
H        -2.10715054291077    5.87676326442754    9.62500543273488

