70
CSD_code = MURSIC | q = 0 | S = 0 | Stoichiometry = C21H37BClN9Ni | MND = 4
B        19.39787276423251   10.26160468063258    3.41794676378972
H        19.63827127168809    9.29447171192916    2.78797767985412
C        17.07631485983593    7.97143575062656    3.37671771191633
H        17.21332783902255    8.11286799875602    2.30633842334319
H        16.14502298254430    7.44300300382718    3.55666833071234
H        17.90890250917468    7.38033921061828    3.75323758461437
C        17.02061475636693    9.27993152155157    4.06555693816241
C        16.35176186004129   10.92126335545196    5.21623143372114
C        15.48534241304101   11.85067139873569    6.00699988501685
C        16.35837096416918   12.83761686054956    6.78678340162118
H        17.10871078000928   13.32196136752808    6.11698916757309
H        16.87754997599249   12.33248958298301    7.59962356369841
H        15.75028024024558   13.63529287118897    7.20768336154244
C        14.60261575115070   12.60924274298755    5.00546698460145
H        14.01194748316315   11.90879228374425    4.42005958200155
H        15.22021280744002   13.19630575271280    4.32850602468301
H        13.92842343245250   13.28000252425011    5.53282091527216
C        14.61003991888077   11.04248029081271    6.96705156891534
H        15.22570699046586   10.50235398516485    7.68243451330064
H        14.02323871517205   10.31897486768941    6.40868888175265
H        13.94036466912935   11.70425676233003    7.51074932143896
C        22.16668335005646    8.77487930318984    4.02231058949790
H        21.49849680853545    7.93753725323795    3.83137904053519
H        23.06016842887972    8.41833402943207    4.52562053268372
H        22.44098244067499    9.21937615137728    3.06779172278008
C        21.50816271334949    9.78017885455023    4.88731073713464
C        21.08390262220589   11.07037030520286    6.50578321412914
C        21.20306215629992   11.73007348131657    7.84459364269249
C        22.12795242068752   12.94550849725168    7.69984628543050
H        21.69989238025003   13.66808157530428    7.01020909527970
H        23.09895093501666   12.63323950269508    7.32324570869989
H        22.26368988794316   13.42427653427086    8.66675470339787
C        19.82327908729251   12.16955147538521    8.33652519367296
H        19.17159620248668   11.30566775799106    8.46015065107358
H        19.37125649379832   12.85888034439758    7.62158689215886
H        19.91317049145387   12.67932264079426    9.29275916473179
C        21.81922297171712   10.73045862071104    8.82789134678096
H        22.77920435562566   10.38619031765374    8.45520676762835
H        21.17085797283866    9.86566053523724    8.95211452461375
H        21.96018692208863   11.20334567023642    9.79689579681107
C        20.34712021252272   10.67348118918580    0.38724739024286
H        21.30313542972586   10.36482479006172    0.80498615280503
H        20.50381169765301   11.10287588661696   -0.59755610262512
H        19.71012764033388    9.79532137110315    0.30345031724659
C        19.71406850089502   11.69589598685775    1.25106003396490
C        18.86055520223792   13.50792091090438    1.92480395986629
C        18.32553295722703   14.90641286631624    1.89729409440880
C        17.80524980748690   15.20326598791413    0.48781045581817
H        16.98914232436496   14.53154762585775    0.23057896227816
H        18.60065505579547   15.06583950549637   -0.23835360450659
H        17.44494795034514   16.22780635680259    0.43454300242222
C        17.19243664644794   15.05246248040691    2.91505597346555
H        17.53613379023604   14.76576760227759    3.91233749808813
H        16.34988030981135   14.42222672856967    2.63460815350179
H        16.85666427738629   16.08566150496160    2.95485092211281
C        19.47196491904792   15.86895512419873    2.23325382671660
H        20.28685473433608   15.74117936971545    1.52486042000994
H        19.84573151225274   15.68060288095012    3.23589991017505
H        19.11899566314902   16.89614615731276    2.17967853152733
Cl       19.75383249940619   14.34520573644216    5.42216937718002
N        17.56712036322605   11.23294187582433    4.79727589760256
N        17.99968038382894   10.19224648485685    4.06281338082702
N        15.98495875544555    9.71050945237896    4.77363466800226
N        20.12318978280403   11.28265592966899    5.61931470924520
N        20.38546517285606   10.44513083715811    4.58097604534279
N        21.95834515811436   10.14765351828426    6.07361338413242
N        18.85090579638375   12.69600868747946    2.97159353545080
N        19.38824123769498   11.52477435222702    2.53959172690687
N        19.39612218536807   12.91341269408787    0.84744400113698
Ni       18.65051840821914   12.68577473181619    5.05795572938468

