70
CSD_code = MURSAU | q = 0 | S = 0 | Stoichiometry = C21H37BBrN9Zn | MND = 4
Zn       10.41978703107652   11.67738404489163    0.62874189274318
Br        9.10166007233796   12.99559653915112    1.94687640895609
N        12.42826984698244   11.71064261091448    0.80979012929600
N        12.95520905605196   10.85200449811187   -0.09950410745729
N        14.62860687633622   11.76794944108082    0.96960637071890
B        12.08993614094842   10.00719411920855   -1.04141053964368
H        12.77110096480710    9.32601113048453   -1.72257651392500
C        13.47000336581132   12.24596689968743    1.43906936606269
C        14.28729040420909   10.91138415578921    0.02273933198718
C        15.26393737142441   10.13929336700525   -0.77824289151777
H        16.26357212882013   10.41111917167632   -0.45290399555433
H        15.15287078085548   10.36487548514052   -1.83690604957401
H        15.11478484471724    9.07073486438123   -0.63696185850642
C        13.40202888184568   13.25807534764813    2.54043933173111
C        12.72932125547469   14.53311844282911    2.01872975363721
H        13.28688498147110   14.93936957326820    1.17707705840862
H        12.69816984000917   15.27990921471095    2.80779358297065
H        11.70954165123360   14.33927158755950    1.69884105644318
C        14.82629198529037   13.58360648041185    2.99601779769322
H        15.40779836785753   13.98098963010632    2.16895108333903
H        15.32372475808899   12.68766625146295    3.35677176968535
H        14.79787397949542   14.31954634925287    3.79560119924349
C        12.60955023577159   12.67866325265780    3.71784026313942
H        13.07771345532960   11.76448020670014    4.07773204599924
H        11.58525953652629   12.45571389074280    3.43337098380796
H        12.58342050149702   13.39886926118406    4.53145715966176
N        10.23877072147018    9.66890918904008    0.66208957028838
N        10.38638752368627   11.85830362197487   -1.37974805935383
N        11.14801945690094    9.14194354614181   -0.19658012261583
N        11.24511352826580   10.94908998868874   -1.90668337602131
N        10.07896387611063    7.46857487984963    0.71948664410654
N        10.32894555833098   12.01799502293716   -3.58009084170412
C         9.60950454542296    8.62719562066340    1.19746571756086
C         9.85095752584554   12.48748544779183   -2.42148610352844
C        11.02578215810163    7.80986385405836   -0.13714441561863
C        11.18565010667396   11.07125634231667   -3.23876807672598
C        11.82672480655400    6.83319120696666   -0.90924350851223
C        11.95779791192599   10.27032686073443   -4.21541328024278
H        11.50138247516805    5.83356496227961   -0.63738537031916
H        11.68593830944135   10.59563669503993   -5.21505062666619
H        12.88539769587770    6.94424941268956   -0.68369953614317
H        11.73229940277436    9.21164545609288   -4.10433757812527
H        11.68540761877537    6.98232489860226   -1.97780108059541
H        13.02634780303005   10.41169474960143   -4.06626699494006
C         8.50820303487815    8.69521704599249    2.20964551044168
C         8.83867041007486   13.58869172139052   -2.35351982912316
C         9.03000025578117    9.36799669799815    3.48461464764614
C         7.56376335685757   13.06680603376441   -1.68069060249972
H         9.87169083393124    8.81046748228725    3.89083379768432
H         7.15762365786764   12.22502981990047   -2.23814971869651
H         8.24099813625649    9.39919057460252    4.23146891750075
H         6.81682389957421   13.85572947349045   -1.64953687705977
H         9.34986719899596   10.38776617087106    3.29068113381636
H         7.75775256884892   12.74703362304410   -0.66090293709519
C         8.05267548966692    7.27096843681821    2.53531276515101
C         8.51291691938104   14.04407052019749   -3.77779663063467
H         8.87976853983594    6.68947767713265    2.93267038383959
H         8.11563417408081   13.21689752236191   -4.35922724581288
H         7.69186035005391    6.77349463276935    1.63942263306632
H         9.40876212218246   14.40494309385253   -4.27530718268791
H         7.25313790369854    7.29942623943467    3.27130068886970
H         7.77685074430522   14.84353741586825   -3.74938169740896
C         7.33076881964044    9.48768091174697    1.63028166776020
C         9.41792389902981   14.76624150902177   -1.56114788485808
H         6.97081250378989    9.01945206535531    0.71615958165245
H        10.33199140707650   15.12626679344213   -2.02942917041216
H         7.61521310744162   10.51196233357962    1.40724461609023
H         9.64102031848049   14.48189932011838   -0.53685100065923
H         6.51720772818183    9.51384307495123    2.35055018816722
H         8.69756328146415   15.57972223847789   -1.53502934492890

