46
CSD_code = MURVIF | q = 0 | S = 0 | Stoichiometry = C18H19N4O4V | MND = 5
C         4.93855626357843    3.49501557799823   -0.00803324312601
C         3.65148406427557    3.40512560100272   -0.59677433792647
H         3.03293705115160    2.56051407798980   -0.32304068792350
C         3.20185921543645    4.34442973536866   -1.48776762070671
H         2.21622751971124    4.24536546160356   -1.92130353241498
C         4.00534236591078    5.42603516162398   -1.84503479861140
H         3.64704075173985    6.15748170809706   -2.55306980660792
C         5.25729488254468    5.55175827139721   -1.28976106866619
H         5.87815412251852    6.38750329265722   -1.58107600408234
C         5.74383075124143    4.61512085123490   -0.37190796592001
C         7.04780477927353    4.73218592068898    0.23364649114465
C         8.88210427872820    4.29139727942136    1.45707137785472
H         9.59966931394865    3.55316415332361    1.08201687510867
H         8.93239132287819    4.28924038303580    2.55001154564396
C         9.06303372009290    5.68506475790938    0.82190250556182
H         9.05907104764855    6.48524770049783    1.57231328340646
H         9.98028747576033    5.76208098098987    0.23188514265397
C         5.91758702456837   -0.38761095781141    2.98098344563473
C         7.15683183806617   -0.59173688485759    3.64537612534259
H         7.93372390939443    0.13623257607020    3.43411458905096
C         7.33762553306523   -1.64518362450966    4.49462776029044
H         8.28867616845302   -1.78201841166821    4.98831281403032
C         6.30406742690029   -2.56538205080184    4.74195274760946
H         6.47018223223517   -3.39196953259101    5.41555229377945
C         5.09361660269890   -2.40738731907346    4.12937291399729
H         4.30085303585602   -3.11715628941290    4.32185626018288
C         4.85995161043286   -1.33169906518786    3.24580294413150
C         3.60401910406685   -1.13853784304614    2.61391349757249
C         1.99590743784067   -0.15974590217014    1.28342295280525
H         1.99388159362048   -0.27239904706107    0.19461965461762
H         1.47455680388329    0.76839059033284    1.53535269993086
C         1.38556608785250   -1.38682596723973    1.99440668932805
H         0.56915385046961   -1.10786487891030    2.66867862357454
H         1.01110300157310   -2.13149675408388    1.28600586422537
N         7.55355034678977    3.86769961877952    1.05569082731427
N         7.90115736558345    5.76435308781711   -0.04264479817043
N         3.34881174551256   -0.13622109804471    1.78623990045161
N         2.51159886801820   -1.91459892948778    2.73920604050483
O         5.33318127860322    2.59871330185566    0.81419839649552
O         5.72756116428530    0.58013856453289    2.17438008258965
O         8.12045513319100    1.39411774731705    1.23700434956903
O         7.16932627945460    2.58690689434543    3.22683321123940
V         6.90555239923701    2.17136899555021    1.76939065921049
H         7.56965286814356    6.65555018561598   -0.36778790097509
H         4.10958331776694    0.53556614376610    1.59532240793121
H         2.42767704599985   -2.68463406486153    3.37513679234696

