45
CSD_code = MURVOK | q = 0 | S = 0 | Stoichiometry = C21H20ClNRuS | MND = 9
Ru        2.17043132295736    6.35127159687359  -27.71260066969869
Cl        0.95392992380369    6.52414042960114  -29.70830548117011
S         1.38054060757044    8.61086136885263  -27.21151491951900
N         0.30916895090530    6.39922722345174  -26.87312361123326
C         0.00809640970105    7.65837632116967  -26.79534669102986
C        -1.26409213752692    8.28107085035090  -26.42640277910354
C        -1.27365101115972    9.31955797867587  -25.49782961919788
C        -2.46395903776564    9.92966141060049  -25.15142265165042
C        -3.65107351317149    9.52188379566222  -25.73843268390043
C        -3.64312233572218    8.51042989642281  -26.68468479498043
C        -2.45740761298361    7.88905752994913  -27.03110018315202
C        -0.56681943216227    5.30960543428644  -26.49299573726228
C         0.09022113038225    4.60537558093606  -25.31850021543683
C         0.40565954392336    5.37354625346056  -24.20031645189013
C         1.02730986093261    4.80651171309871  -23.10352906971639
C         1.34178215292890    3.45695252361950  -23.10599634545282
C         1.02176127598451    2.68392061316749  -24.20764914377430
C         0.39956401869417    3.25276288151192  -25.30781577673954
C        -0.82039445114506    4.42444438733315  -27.71059347617974
C         3.98379011945938    6.42243102363126  -26.40730695588063
C         4.37813924742130    6.74328844815974  -27.73244060299422
C         4.10579497915163    5.85604154218355  -28.78129271468073
C         3.45485238182467    4.61768277294398  -28.51418862446401
C         3.08393351041632    4.28744941501822  -27.20524695559649
C         3.32285503383691    5.20817639185987  -26.14920376511963
H        -0.34012313789305    9.63729135967955  -25.05779248685415
H        -2.46578297250436   10.72980895238157  -24.42630030266370
H        -4.58013666320571   10.00168826978635  -25.46886647415584
H        -4.56368198662947    8.20764654668836  -27.16115250815893
H        -2.44383005392991    7.12993351092893  -27.79853521396524
H        -1.52282798254146    5.72574573551563  -26.13937330918666
H         0.16139056724897    6.42705396021635  -24.19650202070547
H         1.26728210045470    5.41746464200359  -22.24571451318831
H         1.83003114843458    3.01099534335166  -22.25217611689002
H         1.25768337822623    1.62945253968253  -24.21355521468046
H         0.15359741002969    2.62957378877699  -26.15292329314530
H         0.12259394336653    4.03577134810707  -28.09332830004207
H        -1.48806067180783    3.60479917249979  -27.45886903585897
H        -1.27070747650762    5.01966596378866  -28.50165228033112
H         4.24267808694857    7.08595802353275  -25.59035274621716
H         4.93132202550824    7.65645481044980  -27.92211909749935
H         4.44086769472623    6.07864651180926  -29.78807696036986
H         3.30107889930515    3.91068538367776  -29.32260765436027
H         2.65779683358125    3.31687619871255  -26.98125936087671
H         3.08331791892996    4.92626055558821  -25.13070319102408

