84
CSD_code = MUSFIQ | q = 1 | S = 0 | Stoichiometry = C38H38N6PRu(1+) | MND = 8
Ru        0.95766342062274   16.41313103260976    3.88603297926675
P         1.56992546801342   17.67107317809447    5.73351450248010
N        -1.03323407119624   16.53037007187616    4.38978763665181
C        -1.94832604791713   15.85118478411672    5.05901823642560
H        -1.69971763703635   14.96361386059108    5.60669015453539
N        -1.66182813128194   17.58620833857666    3.83678501407514
C        -3.19620785915722   16.47905655781098    4.93883010587345
H        -4.12241834616158   16.15778528584202    5.36694469534147
N         0.40738474736023   18.04548602138099    3.01414847315585
C        -2.98072655490230   17.58340536249493    4.15424185971628
H        -3.65561975265294   18.33957476547847    3.81223997962389
N         1.28107260121863   18.74792349041427    2.34127421812224
C        -0.88027785171820   18.45715186175372    3.09830594619099
N         1.90043157855112   20.57339990697263    1.08117239927197
C        -1.31656885070327   19.63605635851041    2.50462213932285
H        -2.34178705950569   19.95417303206757    2.59422018062039
N         1.62274652165228   21.73300582985757    0.46312153100873
C        -0.38940729872088   20.38299747168418    1.80863855229687
H        -0.62424957748726   21.31395418088078    1.32421988094580
C         0.92277719972468   19.88036056528085    1.75217443407125
C         2.74572799213721   22.13652860061074   -0.07042386689342
H         2.78511672142986   23.05109376145289   -0.62676784376306
C         3.79632906042198   21.22677099374350    0.19867231603194
H         4.81587033234391   21.30564752333852   -0.11545693610579
C         3.21803535104016   20.23816135747152    0.93882607774536
H         3.60911091055867   19.34212869331540    1.37271678132925
C         1.29796181392442   14.18395242220469    3.87948189129299
C         0.81342802655961   14.63695325009817    2.59482350699492
C         1.81242984685620   15.48067807903755    2.01866826431533
C         2.86023465982713   15.64646875727930    2.96899282443964
C         2.54583199811843   14.81661092146632    4.11690981409832
C         0.72195150232807   13.02517294273166    4.63667649637500
H        -0.36548629881200   13.06223957088019    4.66834220648862
H         1.10178322095720   12.97960999413882    5.65468005901410
H         1.00528679513823   12.09889676811277    4.13322295406179
C        -0.36300908592525   14.04277938342111    1.88085006619213
H        -0.73821374461538   14.70729535655305    1.10426920519350
H        -1.17703609445285   13.82628571824833    2.57122434791986
H        -0.06648292544841   13.10459208213771    1.40832726492565
C         1.83189706595752   16.01002590004895    0.62020351945958
H         2.51287217368522   15.40660826134070    0.01813668401195
H         2.18332547572633   17.04082987569671    0.59377290491558
H         0.84606694524641   15.96791654732462    0.16186655592668
C         4.22365304783198   16.17915760277528    2.65437896257003
H         4.73583799037648   16.52525756902254    3.54850102359396
H         4.17123735376834   16.99676248790674    1.94015553579510
H         4.82170252961015   15.38195850003485    2.20807955702146
C         3.52262537763649   14.49657980612492    5.20752994957359
H         3.03056641656667   14.07412699957219    6.08032347071686
H         4.07232530354638   15.38397224730014    5.51898950801511
H         4.24304178466192   13.76649878688709    4.83451426176246
C         1.16226729864492   20.44868521859226    5.25181483564109
H         2.19592259201432   20.51270671001010    4.94541572675485
C         0.34946998989556   21.56611448955981    5.16223779990069
H         0.75291989416611   22.48898952784278    4.77373407340949
C        -0.97243286955753   21.50503512644225    5.56982592438513
H        -1.60141555818381   22.37864983717882    5.49661866502788
C        -1.48134579560317   20.32343351751622    6.08608217719277
H        -2.50625749512850   20.27469990336567    6.42265849990109
C        -0.67550926766152   19.20408158975631    6.17333629648707
H        -1.06705971210913   18.28202090299794    6.58677621382448
C         0.65417067981477   19.25541954472180    5.75348731029855
C         0.79893840729467   15.70918500594707    7.52188736261374
H         0.73810404041902   15.09945336969317    6.62870194087268
C         0.49201600038902   15.19411775750928    8.76868436047780
H         0.19224063229905   14.16177658428345    8.87184720787684
C         0.56764387736759   16.00867554940562    9.88674784875247
H         0.32891541421757   15.61004290213189   10.86073226065686
C         0.94332488321752   17.33785713029537    9.75828517225555
H         0.99483749305007   17.97031462272153   10.63152351236922
C         1.25081014878836   17.85731533075063    8.51468443668452
H         1.53598676561907   18.89511379704121    8.40692907520392
C         1.18550497991870   17.03686771868142    7.39061673127465
C         4.11428811465004   18.01669330053302    6.94168337397605
H         3.71559019104664   17.55765937479551    7.83459790158857
C         5.43305344411045   18.43798400017771    6.90939901655074
H         6.05534928381173   18.30910501148860    7.78189008600251
C         5.95499455327130   19.02218892012114    5.76695395022792
H         6.98163854016765   19.35414110245275    5.75223486688092
C         5.16364212583765   19.16701504358614    4.63755619298077
H         5.57559025663650   19.60769166742394    3.74160912684616
C         3.85029384570505   18.73623688483103    4.65783281539421
H         3.22708754138581   18.80334388582540    3.77465912163513
C         3.31146565889423   18.18201195572776    5.81868583406189

