51
CSD_code = MUSFAI | q = 1 | S = 0 | Stoichiometry = C20H23ClN6Rh(1+) | MND = 8
Rh        9.84267606095745    7.12531987415308    3.19841789472425
Cl       11.12195558941942    8.19687540927706    4.80404813905454
N         9.00793487048720    8.92458250182466    3.07177761548040
N         7.89978233488827    8.30407566786229    4.96286380645827
N         9.42092212679518    9.74809094046773    2.15975471948400
N         9.56213749417729   11.86739691011068    1.25576191862077
N         8.40023635667763    7.07842930933647    4.71675518036085
C        10.45815323529809   11.58064706411438    0.25872598485452
H        10.87898484055993   10.60223427220888    0.16551408193224
C         8.23797764288400   11.53086610233482    3.23898810635037
H         7.98304019607789   12.57777722658857    3.23929987593019
C         7.79612853642264   10.64794204405049    4.18913173694049
H         7.15948338023612   10.96298992635589    4.99921710382244
C         9.07888347215339   11.02972384081024    2.21919383020781
C         8.22039761461422    9.31556085946731    4.08041712712233
N         9.17581937198296   13.15647860222063    1.20838096818770
C        10.64258557251025   12.73235350568499   -0.44306606815083
H        11.27410810464058   12.89575579703485   -1.29072898759485
C         9.80964307502885   13.68590295884082    0.19847628489992
H         9.66766352183303   14.71765136223817   -0.05229530580220
C        10.33582818918580    5.02674413581915    2.80307948326351
C         9.94912440084993    6.52496719007025    1.06676833418172
C        11.25203102364289    6.79129480763288    1.61861524742504
C        10.20430429411635    3.81530152083247    3.66785167082168
H        10.67923410835454    2.96944019610577    3.16854996813146
H         9.16206776791456    3.56072802289485    3.84146085372102
H        10.69951074571521    3.95950373268834    4.62593020612227
C         9.35896341024680    5.47522187885594    1.82594702274750
C        11.51362469673601    5.79927141081032    2.63866657645483
C         8.06289838564992    4.79234359842284    1.54018304372286
H         8.24787782088337    3.93504972512918    0.89095217056672
H         7.36454898362274    5.45567431552430    1.03643337745482
H         7.59577994582425    4.42743701448264    2.45196422494060
C        12.28656909434891    7.69925470082265    1.03943699184383
H        13.04397494368556    7.10205395247890    0.53021475130126
H        12.78232601096259    8.27326306263442    1.81991110489583
H        11.84605451206702    8.38478064241620    0.32206415323439
C         9.37474513220309    7.21198283505044   -0.12558833353955
H         9.41730023603862    8.29442986445497   -0.00830995376328
H         8.34244432911617    6.91920784748362   -0.29391569904298
H         9.95678289878582    6.94293035413711   -1.00739099077763
C        12.83036217995346    5.58366041578798    3.29813952029268
H        12.73136633948461    4.99227243031667    4.20404409612106
H        13.30373640741651    6.53045354697877    3.54860078863640
H        13.48522387003884    5.05158584615356    2.60614401973192
C         7.18341152978828    8.30272195883984    6.11366236564226
H         6.70014830048535    9.17851237689113    6.49397502197153
C         8.01818054868497    6.29885804550247    5.70919605520688
H         8.29849267444032    5.26416156373029    5.74954750780856
C         7.23860710830731    7.02926259661457    6.61831651057564
H         6.78456671375906    6.66547623550325    7.51611589752438

