34
CSD_code = MUSGOX | q = -1 | S = 0 | Stoichiometry = C15H12N2O4V(1-) | MND = 5
V         5.27320510614690   10.25073084586662    9.83457732558817
O         4.27690022940348   10.16244928103707   11.00662163168101
O         5.52350012567058   12.03818182741231    9.85724816820598
O         4.38821521634340    8.88002995548055    8.88958484721554
O         6.63897780929667    9.62271928994907   10.18556873748314
C         7.08489221288947   11.33405596143269    5.83239719240367
H         8.15612537550755   11.13973259316518    5.86215143337897
H         6.90492056241313   12.23432516188079    5.24599634492252
H         6.58366677580623   10.48986450673536    5.36521599124458
C         7.87481493030399   14.73872380030806    9.63590017354642
H         8.21846106412182   15.56546618582402   10.24425736451357
C         4.28083055956852    7.36008328374196    5.58444627437246
H         4.74920948521819    8.14666660911601    5.01387495005239
C         4.14485723077989    7.52164986489744    6.96059708718700
N         5.69216722639476   10.65004166009209    7.71350229184443
C         4.62931704422778    8.74002789502931    7.65150160080406
C         6.91827143482110   13.88170301559716   10.11914720814374
H         6.49677095067783   14.00956828154558   11.10679678080566
C         3.22360190495349    5.20979030156994    5.72498474631576
H         2.86638894394618    4.30970340289615    5.24272369989216
C         6.44674490534462   12.78332299336943    9.36069569964260
C         8.40665752882488   14.54666231741241    8.36354484622834
H         9.16249783311796   15.21944006819892    7.98174343852054
C         6.54328486059008   11.49452322939320    7.23359568889433
C         3.82073200271660    6.20942505957508    4.97259257922839
H         3.92736654053433    6.08645562453622    3.90302117615811
C         3.54354705647778    6.51472944335962    7.71200924990395
H         3.45156310794112    6.65873241890335    8.77920809108006
C         6.99427764708824   12.59539215122749    8.05379184595530
C         3.08677465544003    5.36543527196500    7.09526134589842
H         2.62243587038007    4.58498622214085    7.68243433221193
C         7.96701108341154   13.49223241793231    7.59538309886082
H         8.39423620319447   13.35535986631947    6.61237288143926
N         5.27867651644604    9.62078919208903    6.92995187637696

