38
CSD_code = MUSGEN | q = -1 | S = 0 | Stoichiometry = C16H14N2O5V(1-) | MND = 5
V         2.85122739781420    3.03439578847940    1.38365768541997
N         2.96204949732264    0.93244650862534    0.73876188048399
O         4.05001133622732    2.21036368295096    2.58276663342397
O         1.48296419634227    2.91553354620413    2.08833207370525
O         3.49255793928140    4.41773936797014    1.60331678812113
O         2.51237574942812    3.18812599169749   -0.38221620977039
O        -0.88597818081642    0.74904346198881   -3.94235201875182
C         1.71093507466592    2.55084516468039   -1.16330246357983
C         1.50831272177607    1.14072836125765   -1.11250785460547
C         2.19612809545353    0.34719245301326   -0.12150982514835
N         3.61788101549414    0.17660640018821    1.65481341377162
C         4.13110062617181    0.94364936763644    2.58620985352466
C         1.01944938745008    3.27100990430849   -2.16779432471150
H         1.17562525159964    4.34004661000323   -2.19961759889920
C         0.17896747089782    2.65588845941155   -3.05765335657847
H        -0.34590693098777    3.21800837752095   -3.81572440069971
C        -0.01870614709179    1.27227822449658   -2.99638236489332
C         0.64033237245258    0.53604110928948   -2.03721139882227
H         0.49159330649564   -0.53010114349939   -1.98120858536412
C        -1.14842377595496   -0.62494355695912   -3.89668193258344
H        -0.24290840610380   -1.21928090469829   -4.07011084243680
H        -1.86111929692267   -0.82004744817680   -4.69855843117959
H        -1.59348840871391   -0.92281259860677   -2.94000093777275
C         2.00574465415758   -1.15178617696072   -0.09005604069422
H         2.62888630368660   -1.55827965468254    0.70283911488400
H         2.29527752662908   -1.59680328666249   -1.04161137614148
H         0.96454306942171   -1.39689041345942    0.11508578902403
C         4.85866260215254    0.27509494892786    3.69043619671750
C         5.09724712524666   -1.09666564954142    3.68140433877782
H         4.73844996710455   -1.67961999530257    2.84767927868837
C         5.78288047232997   -1.68819418867458    4.72540738743786
H         5.96788854858680   -2.75412178171199    4.71540148366204
C         6.23469603595461   -0.92033201121094    5.78759628482543
H         6.77003124762617   -1.38715139686331    6.60355385073519
C         5.99818350895013    0.44517735813633    5.80218785433298
H         6.34925792538628    1.04382484410081    6.63151595958837
C         5.31472446697542    1.04223712482127    4.75992331256936
H         5.11594625350953    2.10455315129977    4.74881078293930

