37
CSD_code = MUSGUD | q = -1 | S = 0 | Stoichiometry = C16H14N2O4V(1-) | MND = 5
C         3.02904045294068    8.99397558593397   -0.70968536552844
H         3.46469701374782    8.03294313070799   -0.44743478626069
H         3.80681001511329    9.75597652419796   -0.68693495660274
H         2.61340277313559    8.94225974984833   -1.71545144258355
C         0.99642696014193   13.54276017117344   -2.18814720156179
H         1.85617287520538   13.20762687168526   -2.76449921237932
H         1.20749491964033   14.53960016296192   -1.80034053593971
H         0.14059740578528   13.62187666310397   -2.86023263632600
C         2.26299402412226    6.86482038860982    2.59991126399323
C         1.94914939278890    9.31843597577168    0.29588918688325
C         1.17161326987163   10.52694516394054    0.14846615312964
C         0.70030925785133   12.59020270513214   -1.06357169290885
C        -0.33174762758669   12.86764187957466   -0.16317928812792
H        -0.91081571668386   13.77454234586174   -0.28461962651345
C        -0.61419418265963   12.00837321501292    0.86729960392686
H        -1.40715517659863   12.22023627116569    1.57135528369532
C         0.12048226308356   10.81572223375727    1.07021697321113
C         3.01264361220595    5.62589889600316    2.91510103625270
C         3.79353647153626    4.98184749847845    1.95914324604020
H         3.85112109006657    5.40282037431669    0.96762261204556
C         4.47590066967849    3.82524027140552    2.28584177972513
H         5.08101026660785    3.32605808172751    1.54076232545297
C         4.38881503028607    3.30140618202974    3.56642658050454
H         4.92521992914503    2.39639998906254    3.81860950182869
C         3.61429839239148    3.93974395014127    4.52208294504817
H         3.54753213480891    3.53212946902961    5.52152047416418
C         2.92829628291463    5.09544703668713    4.20028374301859
H         2.31936066916029    5.61290811492340    4.92796128061882
C         1.42634184475663   11.43108819418323   -0.89138988819147
H         2.22615568093074   11.22070385044800   -1.58741025635435
O         1.88244362321744   10.00937348414045    3.70619330553233
O        -0.32703627658150    8.84753557785803    4.26567620116538
O         1.47558860547586    7.34367083663341    3.47277292608566
V         0.76568781038714    9.06998006280481    3.20223377073194
N         2.44818811511999    7.39369816258973    1.41503168278068
N         1.71920548969884    8.53298456130180    1.29506965607560
O        -0.21698736170650   10.03442636779587    2.03562535736882

