105
CSD_code = MUSJOA | q = 0 | S = 0 | Stoichiometry = C30H47LaN10O15P2 | MND = 9
La        8.54872508065271    4.65666976150847    2.06737332468160
P         8.44965098882401    1.55736113409041    3.89325244018079
P         8.53920194646063    6.63221005133232   -1.03978449990911
N         7.73292323044313    2.51608441639512    0.91468778424100
N         6.19653052505925    5.13730105714763    3.05579836689495
N         9.27710017712982    6.25652137629046    3.97316371551259
N         6.99490098870229    0.81350261993221    3.61424321144431
N         8.27610997331897    2.13073138292126    5.43823886502483
N         9.53931333727896    0.25921396147716    3.97863908412237
H         9.72807831262386   -0.03507653887282    4.92719591022704
N         7.41569741619821    5.78077928336794   -1.94083805988592
N         8.12610755298011    8.23424895398573   -0.84921253323956
N         9.85983050456005    6.80413378401771   -2.06921954583910
H        10.21756012260476    7.74419435624315   -2.16161117790965
O         8.99321751062821    2.60499934819836    2.98593560508373
O         8.84534674617425    6.00475926436362    0.26392270468082
O         8.65837952095703    3.07466223561310    0.33354822960778
O         6.90482960036969    3.22067400183954    1.49475476260763
O         7.58706776582856    1.32956479061024    0.84501651802174
O         7.13934747814147    4.69239038805366    3.73859766966522
O         6.46930991110356    5.69694024558803    1.99126636799803
O         5.07099702355465    5.02821222515005    3.43770921359526
O         9.96078449220495    5.24208153011796    3.76155615434747
O         8.71642708717558    6.77244609692073    3.00094265054317
O         9.20038450484734    6.72849810229533    5.06820242409680
O         4.52641176426379   -0.53331768893128    3.77856550253020
O         7.55268561621005    3.37968761840003    7.84876407834623
O         5.21025255088323    4.73015843651926   -3.34420606358628
O         5.61613150201782    9.49451921435284   -0.44415834646908
C         5.75021745146456    1.56480861183183    3.62326812041215
H         5.41187755278111    1.75159196674430    2.59808152226607
H         5.91132749987465    2.52068706564510    4.12315363011991
C         4.67600357372112    0.74913934298897    4.34797528876096
H         4.92700307612798    0.65038625668946    5.41558174284954
H         3.70572941555702    1.23840082821862    4.25283957313455
C         5.74289385343490   -1.24252116728946    3.77987945307158
H         5.53161757706143   -2.20573545562138    3.31243677446625
H         6.07789446189817   -1.40802584179686    4.81747243892279
C         6.82728504724941   -0.49175114795069    3.00286285759932
H         7.77289060724756   -1.03095955518810    3.04135771078669
H         6.51723904865075   -0.38458589602706    1.95828666298894
C         9.07936938597392    3.21331401482311    5.97668773164967
H         9.53500033552284    3.76701011845701    5.15857029479906
H         9.86882008725753    2.80432785139666    6.62465791074891
C         8.17062402627194    4.11745718342451    6.81002410315365
H         8.74350262427625    4.91105561403460    7.28901923269066
H         7.40928741841872    4.56062106766533    6.15602201168101
C         6.78264745826371    2.32530429264339    7.32710244150581
H         5.98038351836339    2.72383353910517    6.68818823483805
H         6.34673931344862    1.80974136713555    8.18577667544934
C         7.65475927037784    1.37100639310914    6.50139321939892
H         8.42382377740116    0.94348404627217    7.16251868459389
H         7.05992530846010    0.56499574136225    6.07400170450831
C        10.62822881606398    0.09875556152120    3.11832688387780
C        10.45895736795238    0.25813218112106    1.74720351139075
H         9.48230540419912    0.50160636296817    1.36326032354004
C        11.53040663704397    0.07621377695756    0.89427046518598
H        11.38619636881672    0.20012398256172   -0.16879087088458
C        12.77616152599972   -0.27915523435523    1.39088539240556
H        13.60869092982166   -0.43561403437752    0.71984360481340
C        12.94044553701078   -0.45886418294057    2.75451699700158
H        13.90286029833413   -0.74722727732130    3.15111082318711
C        11.87577814989855   -0.26860856236853    3.61596743234158
H        12.00895069467264   -0.40690411896791    4.68002042946250
C         7.49442904591290    5.54598471942984   -3.36843233332495
H         8.15557588568683    6.27938264040064   -3.82949992821579
H         7.88954014558520    4.53992956727008   -3.56685337040992
C         6.08403422915071    5.64453544129175   -3.96030098817869
H         5.70349821031524    6.67088801412199   -3.83856689709857
H         6.09323828706456    5.38674799406282   -5.02095429448798
C         5.13236924760384    4.94633219425861   -1.95097996364557
H         4.46609371896336    4.17611626104843   -1.56105409574034
H         4.69377111311525    5.93568924718950   -1.75182607202342
C         6.51124963036360    4.84394600783649   -1.29487519456481
H         6.88107625887444    3.81685630095777   -1.42494210481645
H         6.44060448498300    5.08112181489839   -0.23062308626941
C         7.46287147285509    8.94945044931197   -1.92240589567360
H         7.70290612172259    8.47440747833021   -2.87496811462500
H         7.83319432556962    9.98151674255606   -1.92701630896312
C         5.94643287628385    8.96173553969363   -1.70050696914874
H         5.44904241376615    9.59087312147149   -2.44218609045460
H         5.57099032177200    7.92962779344706   -1.77715588606559
C         6.21542399159735    8.75005082682195    0.60007474060451
H         5.84715264699977    7.71353402642630    0.59509549259869
H         5.91680530813747    9.23644196648183    1.52843785381217
C         7.73566458735841    8.73565805754902    0.46051815143120
H         8.12414537444393    9.75599861421335    0.55423289668148
H         8.17243388734685    8.10223941803117    1.23089096982114
C        10.76795968039733    5.78965480992077   -2.36483871576889
C        11.95592620049997    6.09122556095687   -3.02723020714086
H        12.17964379467205    7.11731164074120   -3.28289431921821
C        12.84586605440335    5.08495441734611   -3.35451452808888
H        13.76263929333600    5.33149138528179   -3.86927546592682
C        12.56561251645382    3.76874884786769   -3.02622625591475
H        13.26070203249891    2.98493020861844   -3.28864186430345
C        11.38592446112345    3.46881790246330   -2.36286320171983
H        11.15439240951907    2.44940376272476   -2.09351144896046
C        10.48966211186514    4.46781237084090   -2.03267904597644
H         9.59006072067121    4.22799740160023   -1.48868647530719
N        10.89087680523221    4.27422645431333    1.36146248684619
C        11.89937305887049    3.81314609074215    1.07669496525992
C        13.15876910309270    3.24642415927227    0.71876008352502
H        13.15033739062512    2.18335073488118    0.96634406191635
H        13.95503653981471    3.74408110515176    1.27051203848712
H        13.31602759169776    3.37396280904934   -0.35253198732420

