40
CSD_code = MUSMUJ | q = 0 | S = 0 | Stoichiometry = C15H18NO5Re | MND = 6
Re        0.99053355495001   -1.43363994814311    3.69548478244361
O         1.54199908869311   -1.06598721746240    1.54647538996704
O         2.54642547394944    0.13430857840393    4.01766661138467
O        -1.02903123998802   -3.63401640303882    2.88501785117561
O        -0.92615939810338    0.96191455699314    3.29967981084983
O         0.54444859041222   -1.76309198703783    6.74082822571117
N         3.55166292702641   -3.19807057903233    3.18118774306153
C         4.59348823004593   -3.92620861349884    2.59764826788242
C         4.80157388029859   -3.42895012493874    1.15992269928337
C         3.58674258618117   -3.74539512367317    0.29168256033556
C         3.29042817668546   -5.24163757027120    0.30791305098793
C         3.03862767085474   -5.71597937859164    1.73600757741235
C         4.24812300831505   -5.42118083688991    2.61897939960549
C         2.58138782012242   -2.67849726042510    3.54178467871612
C         2.48888792138632   -0.21948212687847   -0.43945425025327
H         1.80733472477238   -0.94609476622307   -0.87463758178203
H         3.50785049666435   -0.44847358879172   -0.74487860372422
H         2.23761800434484    0.77303224663692   -0.80729140057496
C         2.37515934275625   -0.24969217273712    1.07242349722941
C         3.20557463011562    0.61953699117985    1.78339547285205
C         3.23513728207948    0.76191639514183    3.17615441134813
C        -0.29703514687757   -2.81616282507085    3.22283190887212
C         4.20079493591930    1.78818135851525    3.73472688692390
H         3.91910838853801    2.78185111986104    3.39150393682189
H         5.21192881962877    1.58198427140568    3.38978146030914
H         4.17398507829720    1.76391959992940    4.82137046915403
C        -0.28665588009288    0.04303809206387    3.49775273886500
C         0.68457972517192   -1.66315299978375    5.60732064788887
H         5.49575616444793   -3.73978881497062    3.19475349310777
H         4.98700453409101   -2.35206956982057    1.17173780173382
H         5.68785624186102   -3.92286129951734    0.75632459048485
H         3.77720295540255   -3.41196569151118   -0.73002737631903
H         2.71662582549931   -3.20063874831755    0.66469474581044
H         4.13764058758684   -5.78755973652552   -0.11550409673904
H         2.41505029004312   -5.44965110409537   -0.30853530109109
H         2.83787781384374   -6.78833969659332    1.74565160834467
H         2.15873531716508   -5.20786684831663    2.13819946642211
H         4.05126507405499   -5.73547845574274    3.64593270576736
H         5.11734641956488   -5.97159719672533    2.25364719459452
H         3.86722008429638    1.25004747449644    1.20874692514461

