93
CSD_code = MUSMEU | q = 0 | S = 0 | Stoichiometry = C48H39ClO2P2Pt | MND = 4
Pt        8.17697984247808   23.05785342707089    0.14420400937773
C        10.19317718967221   22.99617598233899    0.28686394357205
C        10.84203422890515   23.40893197305686    1.45742602989610
C        12.22680904784045   23.35091381279862    1.55075858340866
H        12.71489467325907   23.65424546857685    2.46727948640518
C        12.98520980991582   22.91323063326810    0.48067672021866
H        14.06217917011919   22.88171185511083    0.55551403813613
C        12.35770482962687   22.51513901348463   -0.68541354922125
H        12.94830913719325   22.17756965262873   -1.52648178074036
C        10.97251110350875   22.53938325196209   -0.78366666087347
C        10.31948650656470   22.02191758796243   -2.04277943852814
H        10.85135268478187   22.38807823586905   -2.92790311636689
C        10.32905614029538   20.49071559453657   -2.07157904209679
H        11.33964785011867   20.12937697333627   -1.85213252221477
H         9.65859959691740   20.10189864359328   -1.30437911609878
C         9.95373735917677   19.98302792087654   -3.44927184215948
C         9.35285068127493   18.63228580278567   -3.54666465987531
C         8.75316322231124   18.27991432886570   -4.75622676350671
H         8.77632002814876   18.99386438582594   -5.56553218503847
C         8.14083639864852   17.05200077493994   -4.90862877602122
H         7.67351617733159   16.79408559095836   -5.84722043293347
C         8.12807843071723   16.15285774070289   -3.85519695314853
H         7.64781013985443   15.19211614759115   -3.96811824524312
C         8.74003953183253   16.48371253378679   -2.65641068187476
H         8.74182327786623   15.77645856743435   -1.84005896992985
C         9.34764938309148   17.71467328292735   -2.49733969506514
H         9.82969636770280   17.94647933137488   -1.56030629379698
C         8.60337786344443   24.07987487185734   -3.14030500321993
C         9.21900542079837   24.05946689135377   -4.38858085148614
H         9.70244493720028   23.15909867880385   -4.74271750312933
C         9.20268054609990   25.19822468603833   -5.17391556471086
H         9.67549810984218   25.18716899897861   -6.14537221209454
C         8.58261873191673   26.35228064237973   -4.72006529750891
H         8.57540912259699   27.23703897546788   -5.33999480898454
C         7.97270330418714   26.37475063140272   -3.47607473307833
H         7.48975535120222   27.27547221205006   -3.12622715988269
C         7.98245939388049   25.23941979568279   -2.68695147330870
H         7.50207417558886   25.22557037619681   -1.71351778974192
C         7.52163275519993   21.40497264888756   -2.84707925888844
C         7.12676351820938   21.43823006437903   -4.17801766906601
H         7.46715875184409   22.23140599027033   -4.82682516787894
C         6.29326787220040   20.44890109760652   -4.66838539782045
H         5.98665124888980   20.47351193351251   -5.70409987794794
C         5.84311089023522   19.43488270543699   -3.83892817347213
H         5.19166866572985   18.66739793876024   -4.23020657970707
C         6.20822728380620   19.41667115064937   -2.50256645763625
H         5.83673218959038   18.64095565618043   -1.84942476154423
C         7.03681929491208   20.40351654421570   -2.00784378706642
H         7.29605127810864   20.43227176505668   -0.95313959573215
C        10.05424079736263   23.96154127564660    2.62148679901078
H        10.42055270050543   23.53810352131637    3.56361715045341
C        10.18427486564386   25.48602214866517    2.69349858507707
H        11.24340528990631   25.76224253004889    2.64891195231059
H         9.68200961518034   25.94154974454412    1.84001875274761
C         9.63506393429284   26.00513354416102    4.00670427845415
C         9.12789697941369   27.39663756754149    4.04518793414333
C         9.33669820260104   28.32296506936396    3.02477282959727
H         9.92708820228848   28.06590410081228    2.15905587526075
C         8.80328381187490   29.59404109693189    3.12307647702639
H         8.97030149707822   30.30736364858588    2.32942915157898
C         8.05534500182459   29.95775804734374    4.23176559440921
H         7.63518986013785   30.95056931810408    4.29664375143711
C         7.85477916982771   29.04942219914722    5.25789178978278
H         7.28057322179967   29.33171133927434    6.12764457073299
C         8.39064657711619   27.78054470176060    5.16597732036072
H         8.24748346485097   27.05826891878923    5.95538474805238
C         8.01359476036717   22.09018220485713    3.48908868561586
C         7.38007410316521   20.96428813059547    2.97275549496409
H         7.06802199484443   20.97326197110030    1.93322173106145
C         7.14720198022439   19.86785039295669    3.78242686005534
H         6.65435145618338   18.99318604526753    3.38374872599496
C         7.54587005976238   19.89590101017102    5.10915624605925
H         7.36375595686789   19.04155426169718    5.74487354850098
C         8.17806124745990   21.01659122586945    5.62564819171523
H         8.48532778016538   21.03248532163357    6.66138719577226
C         8.41767564854925   22.11608176067462    4.82101796828892
H         8.91105231614550   22.99034398121395    5.22335435243894
C         7.23067036445560   24.83156805366466    2.95540456462953
C         6.99741211890422   25.84749143653901    2.03012027426024
H         7.43188793688627   25.76156653943536    1.03751532935142
C         6.19660501987606   26.92259111231616    2.35832529384167
H         6.02126614917596   27.70954391058815    1.63970505420657
C         5.60488364905345   26.97913586203842    3.60993830967183
H         4.97462296085957   27.81651875737844    3.87073967649478
C         5.80221810235000   25.95249804712785    4.51851801336491
H         5.31866337012017   25.98783919197160    5.48395807366166
C         6.60839014811205   24.87525087571240    4.19592652580339
H         6.75188947528905   24.07329476439892    4.90468669684649
Cl        5.82040328790712   23.12982770476362   -0.01687831751435
O        10.14788809796732   20.66023272444220   -4.43781974621029
O         9.62114194658187   25.30266069705997    4.99692623482136
P         8.56153342124059   22.64984159661805   -2.03434517799151
P         8.27071994139270   23.47273087936446    2.35265967125902

