87
CSD_code = MUSPIB | q = 0 | S = 0 | Stoichiometry = C37H42CrNO5P | MND = 6
Cr        4.69692613388820   10.17141032674935   10.18316466955856
P         6.28938765430410    8.71633508587895   11.34045795406409
N         7.90657609189748    6.59411835923484   11.74124138687312
H         8.37565636296813    7.24739588973830   12.35774368941213
O         2.85386816893453   12.08931595288964    8.81872473923007
O         2.64172082794619    8.16369825338477    9.30110160592944
O         6.08757704804286   10.24939455815145    7.51418297116697
O         6.11879152870509   12.70100883205909   10.97670646028181
O         2.69414837702487   10.55569224980903   12.38887225001645
C         6.78367981115236    7.08919485129827   11.14899904517080
C         5.86704322885371    6.20630329514347   10.42284302279112
C         5.36771239726168    5.03941998450896   10.99622358929799
H         5.67506054175099    4.75350984151183   11.99113928717445
C         4.45973869282609    4.25784860670460   10.30817146623378
H         4.07568325016435    3.36032616422727   10.77155643052243
C         4.02909347255550    4.60994417044054    9.03444675235102
C         3.03111757658154    3.77681226340047    8.29283264760279
H         3.36322847900535    3.59902976577511    7.27150227876098
H         2.07598906423480    4.29954165041134    8.24496259185065
H         2.87566288279132    2.82016052128809    8.78520454248652
C         4.53930091612810    5.76912595444516    8.46006937972418
H         4.22153673393287    6.05525919462156    7.46814884309857
C         5.44072318537708    6.56005081482801    9.14324197789401
H         5.84987130056926    7.44520453331464    8.67418882212905
C         8.27197846069149    5.23697301641548   11.88609930355583
C         8.30594368430549    4.70112873450789   13.18345904702125
C         7.92817515726002    5.56734055780909   14.36500351682855
H         7.21161312092645    6.32239648923651   14.01886757826552
C         9.17653568106080    6.28114886704216   14.89750304643382
H         8.91835087091777    6.92811843969534   15.73304531114146
H         9.64721968509522    6.89212201373641   14.12883496534151
H         9.90486000615568    5.54909038482109   15.23957978193320
C         7.25087594100656    4.78330703606405   15.48944969103971
H         6.44531436739652    4.16696613037585   15.09671471506349
H         6.83011836829396    5.47329936580580   16.21806034279636
H         7.95892603242846    4.14367121764444   16.00968966928459
C         8.70397211438212    3.38514310383719   13.35327353009168
H         8.74686090383276    2.95810523781404   14.34227283708089
C         9.03790635808761    2.60329422848418   12.26281495395676
H         9.33303914020564    1.57478441944287   12.40728804472002
C         9.00583505064203    3.14230608316295   10.99306443143005
H         9.28656379161323    2.52800652938710   10.15196405394751
C         8.63974619522880    4.46543572639705   10.77929446979133
C         8.72710718982598    5.03807683184552    9.38435257704972
H         8.35738922270560    6.06581208416484    9.39520916702720
C        10.19125172842165    5.06582142280086    8.93255281790546
H        10.80567665993906    5.61238770919196    9.64409751211650
H        10.27225538429599    5.54903243313819    7.96171568957917
H        10.58815548647056    4.05734368036973    8.84717744926736
C         7.88704175779094    4.23533837208567    8.38925484774692
H         7.85293014278429    4.75095177089002    7.43237836126826
H         6.87036041991652    4.11473737716762    8.75212807434372
H         8.31359680219225    3.24871516470246    8.22714342640372
C         7.64124728819065    9.46128572276488   12.32663531785713
C         7.41387754955735    9.78870690556238   13.67141332119130
C         6.05317682552897    9.60757476803724   14.29618606654178
H         5.44218215446596    9.00261337959049   13.60775516077903
C         6.09814018678309    8.88881588210793   15.64373230944208
H         6.59550753230965    9.49481734806218   16.39703578097667
H         6.62550892502096    7.94252881519092   15.55922957636102
H         5.08565013149529    8.68982686550264   15.98770324190979
C         5.38980078038091   10.97892132126534   14.44394032874640
H         5.94775448479393   11.59879755351267   15.14262909910368
H         4.37268674864240   10.86944994997812   14.81267734812166
H         5.35658152203678   11.49010966949291   13.48317555464154
C         8.44428156429773   10.35537770312746   14.40893449649558
H         8.28462367908552   10.61011638450221   15.44539736864851
C         9.67210107511878   10.61178804512675   13.82946330369673
H        10.46602983559768   11.04917344155714   14.41666751430850
C         9.87472791702288   10.33493844889659   12.49095557372942
H        10.82506513299411   10.57411131807269   12.03836947515359
C         8.86961582998119    9.76635363655599   11.72074538965102
C         9.09722805957126    9.53816204851229   10.24728229342108
H         8.22074039431686    9.01234452096286    9.84239574058035
C        10.33225114327584    8.67640817203996    9.98693181391970
H        11.24230666497014    9.20005831207229   10.26925374278483
H        10.39847015131685    8.43059554587272    8.92987616520128
H        10.27726972752671    7.75005162638392   10.55423773522274
C         9.20473730378868   10.88215472348156    9.52404979391222
H        10.06910869670020   11.44275633762741    9.87249589531145
H         8.31262522855963   11.47939404035525    9.70274338647705
H         9.30391566265107   10.72407989794288    8.45258099402706
C         3.56511020006772   11.34427556272519    9.33761148432621
C         3.52344845882819    8.81742637058699    9.64241676167187
C         5.63811220327328   10.13948330353160    8.56729507504715
C         5.66190277245560   11.67707463767270   10.71723623905740
C         3.54502071859372   10.34937219344398   11.64363103561573

