87
CSD_code = MUSPOH | q = 0 | S = 0 | Stoichiometry = C37H42MoNO5P | MND = 6
Mo        4.84524091103210   10.17420725722942   10.28364108929243
P         6.48175235510951    8.73374754612904   11.42905574861874
N         8.11077858708237    6.61414899659237   11.77316637602906
H         8.58755622791854    7.25952563779922   12.39242979040806
C         6.98123975853611    7.11815205546234   11.19997608808153
C         6.06331163314968    6.23823718596038   10.46828409567135
C         5.52308426013634    5.09818669703396   11.05739041794333
H         5.79240687038052    4.83691500515739   12.07018605540598
C         4.62440956683850    4.31331181203523   10.36129961910544
H         4.20695882229383    3.43731112096988   10.83684558250903
C         4.24522573302689    4.63522833604538    9.06342205097126
C         3.25655867974087    3.79898446324981    8.31278488538792
H         3.61322586743445    3.59483279563494    7.30473256380123
H         2.30986809474449    4.33249395713514    8.22864817039912
H         3.07536754444251    2.85541938765555    8.82133756550805
C         4.79856678486498    5.76584316631061    8.47295420397121
H         4.52298351991508    6.02665500988767    7.46136050552583
C         5.69078143241975    6.56080985559939    9.16477376483662
H         6.13750836954820    7.42032332673549    8.68182960135652
C         8.44626024775146    5.24835210371576   11.92176627212815
C         8.45644173586921    4.70757735725296   13.21703680638992
C         8.09730228332482    5.57929931797503   14.40005894272724
H         7.40550680405060    6.35694544701779   14.05349588289422
C         9.36498557239169    6.25157194525490   14.94097422560347
H        10.07104431628142    5.49525588503070   15.27702804228156
H         9.12539769378669    6.89816240207198   15.78242815128606
H         9.85429223845194    6.85507763070981   14.17797954069178
C         7.39085561381375    4.81136775381363   15.51757231398313
H         6.56938800258584    4.22094317247903   15.11791610664000
H         6.98675427270658    5.51058327273744   16.24691887386104
H         8.07668012369897    4.14873074149556   16.03884709037821
C         8.81853267423955    3.38093450757032   13.38544452343615
H         8.84194909913722    2.94981672969715   14.37334624907991
C         9.14092117585380    2.59411271002470   12.29531825877189
H         9.40720980834317    1.55756550018654   12.43858925102944
C         9.13498297223402    3.13847350820840   11.02752285529832
H         9.40768629172526    2.52038683064346   10.18657382013661
C         8.80452963574239    4.47124780577832   10.81593431452007
C         8.92038923954891    5.04682477512161    9.42443593392571
H         8.55944964105377    6.07768062205996    9.43235895788078
C        10.39275130213334    5.06269132934869    8.99957449074347
H        10.99746735848921    5.60933453907735    9.71938994651820
H        10.49517573863607    5.53965773278687    8.02761781916243
H        10.78400078718757    4.05086120139334    8.92783252691185
C         8.09132721597572    4.25376053511274    8.41250619445517
H         8.52325814434411    3.27123039445613    8.24002350824834
H         8.06191382527486    4.78163513651739    7.46212919735457
H         7.07249092929419    4.12415834621763    8.76657724767184
C         7.84089922650533    9.50181768411377   12.37735789416704
C         7.63626299307562    9.85112330583149   13.72056516861833
C         6.29664334539485    9.65369884471809   14.38506514348524
H         5.66635755779773    9.05670984814897   13.70541328654127
C         6.39270703939699    8.90906688763414   15.71586608746168
H         6.91241366451495    7.96318782661755   15.59257728200398
H         5.39414951379065    8.70713309045456   16.09713326080033
H         6.92375197342610    9.49972609104701   16.45844158110647
C         5.62969733373904   11.01610017665287   14.58866818686009
H         6.20783910752416   11.62411303926757   15.28127614100289
H         4.62755564066163   10.88964420110888   14.99194174950499
H         5.55769136372924   11.55164623539984   13.64292963250752
C         8.67207900273631   10.44817839758319   14.42604913865110
H         8.52830302803359   10.72045379256609   15.46053744920724
C         9.88419831560982   10.71152738990324   13.81804236517067
H        10.68211479668818   11.17375353412609   14.38035074046933
C        10.06602529563149   10.40698286708856   12.48270289266456
H        11.00487237670141   10.64797765935229   12.00742428170932
C         9.05559983238927    9.80789267188011   11.74330676513519
C         9.26732015763873    9.54604406858704   10.27282017627933
H         8.38563079216794    9.01222727330113    9.88888226588494
C        10.49799318691909    8.67529894773639   10.02167908823648
H        11.41109633417557    9.20324748969703   10.28605125559428
H        10.55548011919234    8.40666485950958    8.96957108395011
H        10.44576775885811    7.76129529494289   10.60896962861984
C         9.37319152670449   10.87047261769469    9.51386431447432
H         8.48115526179519   11.47340675305181    9.67819131713616
H         9.46977099142731   10.68348852324318    8.44662963190529
H        10.23809485784789   11.44075196866506    9.84482309643214
O         2.88239366562937   12.12290678422776    8.90931193950463
C         3.61024326644379   11.39890650066923    9.41136387238467
O         2.85651274405387    7.93931815506004    9.45537675459329
C         3.65977397835185    8.69693289026341    9.74118149894652
O         6.39927969382589   10.08648463012439    7.59362885273543
C         5.86439198577492   10.09238727255630    8.60177802709220
O         6.48599626876272   12.63949355955280   11.22089346966177
C         5.91617401245933   11.71229407841185   10.87610380475508
O         2.95244983959781   10.39229911474058   12.73453721246518
C         3.70705238843018   10.29327282815718   11.88497814346011

