41
CSD_code = MUSPEW | q = 0 | S = 0 | Stoichiometry = C16H16N4O2PdS2 | MND = 4
Pd       -0.50196437086292    2.23366267458271    2.54179165616638
N         1.08580586833794    1.07030441178229    2.99201799418071
C         0.71278440734604   -0.21761116896522    2.90437067004143
O        -0.33996416534996   -0.52653254470437    2.30701859464865
C         1.68341835187986   -1.09998938380491    3.53741105591265
C         1.66236088999845   -2.48671370854988    3.63080667709606
H         0.84587449688783   -3.03150286727608    3.18215226533452
C         2.68841816084690   -3.12550008113116    4.29426782682375
H         2.69102248535483   -4.20231308049874    4.37428848368101
C         3.72926777782186   -2.39383925446288    4.86655920761183
H         4.52243676189122   -2.91522842059441    5.38218539493241
C         3.76341721731682   -1.01656300781730    4.78882648459668
H         4.56494182429135   -0.44764640087696    5.23335939246376
C         2.72983142125727   -0.37397472869373    4.12120941658336
S         2.50366550268001    1.33138783124546    3.86168667101179
N        -0.47888933291440    2.92955381850358    4.43826802665349
C        -0.09311242867902    4.21663767936704    4.38371218840240
O        -0.15668987747852    4.84434677046504    3.30540909251838
C         0.33308863534014    4.70409090517991    5.68825804476044
C         0.77724478297952    5.97441794451049    6.03624584156876
H         0.81830354417822    6.74233712361064    5.27913405383096
C         1.15368356262871    6.21438816312390    7.34083458161826
H         1.49977237087118    7.19516719799947    7.63090688166086
C         1.09395024745340    5.19950829417811    8.29617602864509
H         1.39452488665584    5.41001983220768    9.31206603955977
C         0.66199269147839    3.93095101372846    7.96712145929489
H         0.61907959901467    3.14286645009997    8.70243583705197
C         0.28512162151972    3.68958587208197    6.65330490135854
S        -0.29129632091818    2.20776256562454    5.94756897964537
N        -2.17234401194181    3.39063619270347    1.99075536255334
H        -3.06054730524236    3.10121125738949    2.39997495963966
H        -1.89422511397789    4.30385592230353    2.36869610094216
C        -2.21941481239284    3.39947619681173    0.52537882963796
H        -1.44722467288444    4.08804565147975    0.16540069292018
H        -3.19397238019048    3.73219409064178    0.14439743097747
C        -1.90007863905201    1.98416987879909    0.02654268022862
H        -1.94941862969475    1.94142418441392   -1.06961524281392
H        -2.63497436678280    1.28436261125492    0.43933474040700
N        -0.57890892059353    1.60623214139164    0.53575751987020
H        -0.49329547708246    0.58952272406168    0.66085535147131
H         0.17331371801425    1.94909524782777   -0.06147217348778

