113
CSD_code = MUSTAV | q = 0 | S = 0 | Stoichiometry = C54H48N4NiO6 | MND = 4
Ni        4.05782229245266    7.95557281178202    3.84648516449106
O         3.27853661407190   11.35930989627045    5.66852021481158
O         1.91781720000668    4.66207691248261    4.27850118567337
N         5.31799870502409    9.45469958463536    3.52031161432066
N         3.12109298984860    9.22292622266823    4.80745199476589
N         2.69692765898281    6.83173754988281    4.40097232714497
N         4.71202757692333    6.32898056986772    2.98477102416754
C         6.55854220127027    9.52487719443086    3.19166957710362
C         4.63152584844978   10.71005371021373    3.77640529196828
H         5.33501492781989   11.49863193337942    4.06963387743456
C         3.59895760521161   10.47050595608408    4.89930233359248
C         2.76917585851462    5.52391176470135    4.13773459581551
C         4.20776499813291    5.16094310860556    3.67889784681695
H         4.18027894603474    4.29266768154115    3.00912353780360
C         5.25886210853608    6.16867600724568    1.82577554662407
C         7.44249366305721    8.36201497151491    3.17640447612659
C         8.45751571022350    8.24437810838947    2.22336668873086
H         8.54694579065185    8.98851742368593    1.44672553897657
C         9.32307943522058    7.17813803367640    2.25301319677270
H        10.09708419426700    7.06409777426462    1.51079143479482
C         9.23657949495870    6.21814055717346    3.26686094139465
C         8.25777962394094    6.35919957201201    4.24785013475358
H         8.20617490573525    5.66571425340520    5.07317566255063
C         7.36180228040256    7.41106032839076    4.18832020897540
H         6.60801314352033    7.53439466762384    4.95888680584795
C         7.24145041690829   10.80676914747899    2.87333738933961
C         7.12837594245670   11.37514738732258    1.60683800563131
H         6.54204610899021   10.87693171159355    0.84929039872866
C         7.77156962685880   12.55691737259613    1.31175965798148
H         7.68656357696819   13.00741824895316    0.33539731935900
C         8.54135203365064   13.20772525471525    2.27867624085442
C         8.67004539408194   12.63265458622280    3.53927419943529
H         9.26121125745441   13.10339296761224    4.30815106469449
C         8.03207188489340   11.43815888066285    3.82348971110455
H         8.13462896487329   11.00158436325109    4.80619221997461
C         3.81643683414560   11.19955026775027    2.56122590366021
H         4.48444933837873   11.28338497723086    1.70251814314570
H         3.04170441915064   10.45896043924257    2.34460170591969
C         3.20250376356904   12.53506878270750    2.86212033152955
C         3.97376303601299   13.68666348267965    2.76524374238766
H         5.00508268781506   13.61178928548146    2.44563085551239
C         3.43405949654324   14.92101448794373    3.07605937811948
H         4.04345553199881   15.81007092451605    2.99850802992404
C         2.11650759686849   15.01656087768536    3.49029099712778
H         1.69574826392502   15.98001791030545    3.73831289832433
C         1.34236649934995   13.87360941580472    3.58906329325912
H         0.31522078131454   13.94256738587058    3.91581890115014
C         1.88233324862928   12.63922004801276    3.27597962504945
H         1.27691961663243   11.74833758616668    3.36244851944034
C         1.94808752996610    8.78116282975944    5.43024358333675
C         1.67476555736545    7.42904101091023    5.15273222203353
C         0.52719148970681    6.82765398829004    5.64493616892897
H         0.32381220817950    5.79065704730242    5.43443936410756
C        -0.34529466781782    7.58923000273651    6.40770981290833
H        -1.24419874040997    7.13154231965224    6.79453529544823
C        -0.07967174670625    8.92158243727442    6.67628443267808
H        -0.77278495062644    9.49780878391713    7.27195115300481
C         1.06685652373041    9.53295427661880    6.19261145163526
H         1.27895357117064   10.56869662978252    6.40155808338443
C         4.98050155851716    4.79225393284268    4.96916430393987
H         5.92898164757944    5.32679254393936    4.98315047243633
H         4.40672832267868    5.12602583853478    5.84036022452410
C         5.22660539577305    3.31270176055764    5.07645805846384
C         6.48626946914688    2.82627601290043    5.39908080273620
H         7.29053880150483    3.51797448849014    5.61187650544768
C         6.72529501587199    1.46519012974174    5.47252818848184
H         7.71340449646143    1.10467374950739    5.72221685418127
C         5.69957832749920    0.57007710765544    5.22710728157958
H         5.88429859884282   -0.49283327452897    5.27845378148824
C         4.43369704205227    1.04545806597210    4.92724993089053
H         3.62514192958197    0.35143806204197    4.75125018122211
C         4.19620770991614    2.40585123927528    4.85418244944969
H         3.20517295242493    2.77259834072502    4.63170675049941
C         5.71962403308994    4.87036268373968    1.30081484386281
C         6.57010652998460    4.05012383775607    2.04517987972739
H         6.89319246464978    4.37226982548088    3.02078109307573
C         7.01644702797348    2.85362526783124    1.53783341604826
H         7.67219009675082    2.21576728183926    2.10867891814443
C         6.61623024110227    2.42718850390320    0.26789808529384
C         5.77529746970478    3.24330834076674   -0.48411411765353
H         5.44743571531459    2.94683203533359   -1.46773449802474
C         5.34439664139933    4.45313424469780    0.02755983315304
H         4.68468006139692    5.07307078771885   -0.56173122659479
C         5.37536177886810    7.29688932530967    0.90194169870858
C         4.34404540943802    8.23839988573513    0.83200337356379
H         3.48265450717343    8.13272125189471    1.49322393430025
C         4.37953194531820    9.24542937656832   -0.10416620124403
H         3.57388273649115    9.95619323958254   -0.19819325766472
C         5.46760164006991    9.36642394120169   -0.97588680051294
C         6.50060176178677    8.43337800152635   -0.90711156144643
H         7.34953058443085    8.49671378683517   -1.56927821444048
C         6.43893137195550    7.40172921519365    0.00950009836974
H         7.23754747694982    6.67607374266568    0.04714785719937
O         5.41808637447318   10.41238768758477   -1.83738648403750
C         6.47757128889999   10.59856058664553   -2.74601678256854
H         6.21729910202522   11.48501386503726   -3.32157988356860
H         6.58095823818449    9.74536908090469   -3.42327638479941
H         7.42596650147245   10.76983484699574   -2.22661860714047
O         9.11910436064332   14.37253261412317    1.88882411459749
C         9.88143802114675   15.09592398849323    2.82600155973373
H        10.22063079928428   15.98817901809274    2.30258661877178
H        10.75087328025122   14.52339865274827    3.16463718618228
H         9.27894412219779   15.39083671214634    3.69063561750517
O        10.14974977823387    5.22035821161017    3.20908981605690
C        10.11064112072544    4.19616322281597    4.17621846614177
H        10.92903236905810    3.52414699872615    3.92398594381142
H         9.16702402015503    3.64391423497914    4.13589411099609
H        10.26713486949830    4.58894025214322    5.18583339279825
O         7.10080236384476    1.22672021896397   -0.13302276072352
C         6.71735213596002    0.72584149476092   -1.39206085670417
H         7.20533162557212   -0.24295312543538   -1.48395224218525
H         7.05437825627981    1.37863531857185   -2.20346367489160
H         5.63327374115373    0.59231183482309   -1.45714340975581

