79
CSD_code = MUSTID | q = 0 | S = 0 | Stoichiometry = C38H32N4NiO4 | MND = 4
Ni       -3.64385183899666    7.17580656283824   10.41315268048224
O        -5.95066673414503    7.51069483640951    7.24435803720329
O        -3.99066078465129    4.31349452470973   13.12133365998597
N        -3.41648334531884    8.75356323414311    9.30364420333141
N        -5.12731545272425    6.92420993026185    9.32514518696793
N        -4.29969189466551    5.68433668506296   11.29164831971247
N        -2.26013894019949    7.17060737019561   11.80275809006591
C        -3.32610579780015   10.00495888385342    9.58295423696720
C        -3.78641258572818    8.32009112723373    7.98402720718148
H        -3.89294816059354    9.13371428951229    7.25849200048695
C        -5.13584427916018    7.54742945564415    8.14916785177202
C        -3.70537872906547    5.27340467370857   12.40661575528263
C        -2.63135792333821    6.26570782588815   12.87925524530629
H        -1.75159821949458    5.73611564882461   13.26705702137395
C        -1.14550025644858    7.79120963298161   11.91456410451511
C        -3.30616110644431   11.08513372072240    8.57307582267675
C        -4.23978102183865   12.11571962033956    8.63897130098912
H        -4.99989868937752   12.09587542145437    9.40604518912101
C        -4.20514548773990   13.14502383411559    7.71623236611607
H        -4.93999988368532   13.93423756886093    7.76663038871566
C        -3.22943986268795   13.16645857235480    6.73337814237046
H        -3.20118964062482   13.97325375176038    6.01673217239840
C        -2.28799485168268   12.15193366218896    6.67263458409039
H        -1.52181394468941   12.16879557133060    5.91196080569772
C        -2.32696672321780   11.11199489514421    7.58266103113213
H        -1.58637634637104   10.32627697289607    7.54727932042711
C        -3.28003805733290   10.44980532566752   10.97915572732203
C        -2.56465091795829   11.59282536041518   11.33832597127868
H        -2.00381455110907   12.12761859592998   10.58597075182522
C        -2.55735519759828   12.02638930534454   12.65002473105253
H        -1.99048505474711   12.90443724803628   12.92246488757084
C        -3.28376992769364   11.34334478888707   13.61354299095821
H        -3.28833441268136   11.69158464315749   14.63574910219340
C        -4.01847666564507   10.22213806338359   13.26074471621460
H        -4.60533375770880    9.71025264686309   14.00804549168820
C        -4.01224539815132    9.77038566380078   11.95392612357570
H        -4.62055049909953    8.90843419424554   11.66462648662084
C        -2.79627920089798    7.26563932547941    7.44670848164669
H        -3.16827704966327    6.89101181673518    6.48777489848320
H        -1.81948006342429    7.73209820926430    7.29384330186942
O        -2.59373977536353    6.21426184418998    8.36903389036820
H        -3.29255918530860    5.55430359450298    8.25752645843934
C        -5.98505758920019    5.87648210884177    9.68616021181294
C        -5.48711902107017    5.14135703886503   10.77882037158651
C        -6.18242274397381    4.03565591461930   11.24449582627838
H        -5.80404503485676    3.46843253824649   12.07847447111383
C        -7.36875862993179    3.68297737079384   10.61863229841833
H        -7.91706541263453    2.82454806963936   10.97799264071929
C        -7.85726395436360    4.41119435644001    9.54704197325239
H        -8.78325906492772    4.11848233185230    9.07440790061768
C        -7.17060196697634    5.51630368864360    9.06708119193637
H        -7.53730083123130    6.08442314556402    8.22772761119986
C        -3.32112424745020    6.94500405455637   14.09153548096623
H        -2.72615813244452    7.78643282139417   14.45534477106257
H        -4.30755168515852    7.31625069866902   13.76693096438310
O        -3.44402573728086    6.04859155230110   15.14855756763622
H        -3.76966435899473    5.20399184737977   14.77601995758626
C        -0.52712084872652    8.54729279740404   10.81455614796248
C        -0.32149917838764    7.91393653878086    9.59220468601640
H        -0.68291594970678    6.90658392859341    9.45212331829143
C         0.37106654471351    8.56283521792639    8.58470354306748
H         0.55564498265740    8.05667106931377    7.64761960547456
C         0.84284841393858    9.85059403184020    8.77711858719370
H         1.37704035194699   10.35708081164750    7.98677674050240
C         0.64239986388904   10.48215257029727    9.99420251054462
H         1.01824713262129   11.48217713140307   10.15150814574252
C        -0.01598676736906    9.82723169809196   11.01715977665676
H        -0.14574448035218   10.31240287172977   11.97215558562990
C        -0.28461765810572    7.74243614886691   13.12578749881806
C        -0.42919980463427    8.69531616539853   14.12812328786744
H        -1.18650108449539    9.46195581789323   14.03593570397079
C         0.39665444544737    8.66203111060317   15.23780676206063
H         0.27513349072772    9.40094433438511   16.01552241066154
C         1.36945628916454    7.68412733004741   15.35341184248470
H         2.00672721704239    7.65640296397356   16.22406156688137
C         1.52542483273067    6.74332546663751   14.34970138973501
H         2.28579556726651    5.98168486553181   14.43345565223896
C         0.70724370157019    6.77446433802511   13.23474057119211
H         0.82883356362651    6.04384635545363   12.44796269295872

