77
CSD_code = MUSVOL | q = 0 | S = 0 | Stoichiometry = C28H38N8PdS2 | MND = 4
Pd       12.73514147339156    7.28550807648929    1.86110742094570
S        10.42260862437388    7.65778119474281    1.79310875606432
N        15.15481928789495    5.41848753923018    5.00258885408819
N        12.00545898904285    6.73469675605225    4.14905005990628
N        10.69653644139721    6.47814683707906    4.21618448116322
N         8.58041032842986    7.00346612138069    3.58891203749910
C        16.42599551941928    5.77351974166047    4.98908431021346
H        17.12954166083219    4.97411019965012    5.19200725999228
C        16.86714445713995    7.06297892535832    4.74105249888190
H        17.92107808065651    7.29460061585624    4.73768063858324
C        15.91120454318118    8.04705055854049    4.51652036795589
H        16.20796383068210    9.07315262236147    4.34836661429266
C        14.57697950911663    7.69619037430190    4.52396301317587
H        13.79401005674812    8.43635770738418    4.38884228141954
C        14.23126471680559    6.35198371670048    4.76016498725378
C        12.83416285392803    5.94349427966866    4.75734671028065
C        12.42164822723742    4.67354605737970    5.43777284733679
H        11.70185089728651    4.13892515541806    4.81872453110829
H        11.93771990629410    4.90759563045227    6.38606228054754
H        13.29665847951308    4.05751797669241    5.61953994901900
C         9.90405347363484    7.00763781453178    3.32095179236577
C         8.11414553383919    6.41942666897711    4.82396125413506
H         7.11004665728152    6.80879829939058    5.00560392594547
H         8.76918303704837    6.75569665563650    5.63108903672475
C         8.08728727126370    4.88234626477705    4.80893310345225
H         9.05571181908961    4.50932405991769    5.14251426014052
H         7.33268822497426    4.54874400822250    5.52389285016814
C         7.79639548374518    4.28260206507907    3.43139328646789
H         7.57045832186065    3.22274980078933    3.57189093749220
H         8.70045984717772    4.33974695650175    2.82245476633607
C         6.64945164719201    4.95021601963561    2.66553217525586
H         6.18930147142239    4.20856078502986    2.00800179000017
H         5.88072444630306    5.28761728370670    3.36337181829955
C         7.11727921788063    6.11825469128431    1.79622573261645
H         7.94022743381873    5.78596822184264    1.16017729544704
H         6.30231661226479    6.43744845263368    1.14361581578340
C         7.58116879075678    7.33298447942334    2.60460141105701
H         7.99510064976695    8.08189980461630    1.92657102434178
H         6.72836713588120    7.77466813035705    3.12921678270516
S        13.37646617059856    9.49196680287646    1.68363566570081
N        12.66835039178342    5.20226724752517    1.68596125382843
N        14.62819987753144    6.92395788185241    1.58758271492965
N        15.52762957876786    7.88552389068905    1.44895293771969
N        15.95440771661505   10.12150475170030    1.38796992344924
C        11.63402690914658    4.38308071683707    1.79039709867996
H        10.65522916191239    4.84168808262706    1.70514169519416
C        11.77184285337394    3.02111410665435    1.98680605046713
H        10.90044649303001    2.39131730655523    2.06471670854054
C        13.05696574286782    2.49509686766518    2.08203987084520
H        13.20273752959059    1.43801046758493    2.24671147496513
C        14.13968703461706    3.33779442065161    1.96346319208755
H        15.14517895123863    2.95937371917737    2.04124981248536
C        13.93045997339936    4.71023623468776    1.76137737656858
C        14.99431094720061    5.66580034568750    1.62172778497712
C        16.42934635333790    5.24735721469495    1.51193101588480
H        17.03940979065209    6.13168726045089    1.34836642736444
H        16.56545176256236    4.55579219680456    0.68133115832397
H        16.75201454651518    4.75895761679786    2.43038097712461
C        15.06329920642076    9.12146178241455    1.48090091315690
C        15.55397572713883   11.50502589180205    1.31111518013381
H        15.77877954204793   12.00430411361370    2.26266622759858
H        14.47154913837650   11.52194308796208    1.17141015080844
C        16.23057060874724   12.26115905975543    0.16241096734136
H        17.22137874456742   12.60710477611002    0.46385503608180
H        15.62783685828002   13.14909570827195   -0.03466180135298
C        16.35863162873179   11.42967489766513   -1.11666309726915
H        16.34735402299418   12.10521347296541   -1.97446734456070
H        15.49902122809753   10.76425036895181   -1.21031509332084
C        17.65420231819730   10.61807880745371   -1.17224468021006
H        18.49440932989399   11.28006008542386   -0.94568419462557
H        17.79644824982926   10.24863409140097   -2.19026497192332
C        17.68113778818293    9.42347428977286   -0.22230732452321
H        16.95455190254276    8.67579518060056   -0.54361520043999
H        18.67091562131546    8.96412750201052   -0.25447331321136
C        17.35453547571076    9.79593656895633    1.22565534487914
H        17.57592480788162    8.94361759815574    1.87321870031649
H        17.94695105776738   10.65361503642733    1.54814240352425

