265
CSD_code = MUSWEE | q = 1 | S = 0 | Stoichiometry = C120H142AgN2(1+) | MND = 2
Ag        8.07247945577742   21.58466864682616   18.63822635659336
C         7.92256559391931   23.76404439111687   18.56022416310950
N         6.94744476345247   24.47257269123959   17.96256323613178
C         7.15812428816739   25.81581388733178   18.10636680246988
H         6.48550954368238   26.54624895965375   17.70829635103241
C         8.30925656685876   25.95202075054313   18.81038412652684
H         8.83859327414130   26.82341115048204   19.13464952568047
N         8.75417404025059   24.68707301116539   19.07777281052983
C         8.27850576664513   19.44307743275397   18.78666222408451
C         5.83399419496474   23.82669057323968   17.36758779560744
C         5.98865296269970   23.19426336561239   16.13057614642793
C         4.89691022249379   22.52525726535024   15.60020837352776
H         4.99050596706187   22.04880762804114   14.63565581228981
C         3.69690029405003   22.43433548298742   16.29608771558107
C         3.58771964832610   23.03785708818423   17.54150002251308
H         2.67361931257372   22.93513443887016   18.10789913791060
C         4.64166471733585   23.75753490417867   18.08693358172271
C         7.32858418283113   23.24306587882371   15.42851173614572
H         8.10188524153062   23.15396903322303   16.20648863664441
C         2.53550363111334   21.69943839195128   15.70358610233873
H         2.87361280070188   20.86766604976138   15.09022705127934
H         1.87321361790654   21.32495577845075   16.48020652612824
H         1.95988600389531   22.37069534042964   15.06582623714360
C         4.53474496829190   24.43447427466651   19.43204414516934
H         5.54657337289787   24.67447023241849   19.78065523756724
C         9.96943407412090   24.30265665582326   19.69944182356747
C         9.93798925410484   23.76302517277391   20.98764806665659
C        11.12872678637944   23.31297366269115   21.53601923136447
H        11.12627895926018   22.90958318486432   22.53771517941845
C        12.31457477568959   23.34539021207773   20.81164704287978
C        12.30824537934259   23.86139703950841   19.52258772329335
H        13.21728110016151   23.85469303836664   18.93882223309514
C        11.14724728130698   24.36788083485335   18.95527915589160
C         8.62267751696825   23.69123137039812   21.73162562830097
H         7.84264676541109   23.45845754618205   20.99285155320147
C        13.58481669995207   22.83956474504196   21.42066474443691
H        13.38636556435658   22.02593788652715   22.11408160052899
H        14.27525033727528   22.49596075669474   20.65433302922328
H        14.07275328888525   23.63997554461831   21.97737453391705
C        11.13024803782800   24.95090347623886   17.56386578829599
H        10.08575886809559   25.05942097397968   17.24503775903369
C         7.59865951838201   24.56152175707927   14.73921770638910
C         8.88141403536794   24.80676867530719   14.26661669542651
H         9.63993267264372   24.04186058499078   14.36222116555081
C         9.20506298196606   26.01587838484592   13.68017723037377
H        10.21462744645852   26.15284227775399   13.32853092377420
C         8.26191027435619   27.03039671971530   13.55387803870832
C         6.97579871944171   26.76745042765574   14.01683810369473
H         6.20637985859466   27.51971005013141   13.93082844234217
C         6.64381678502238   25.55619441800441   14.59582369737366
H         5.63198144516328   25.39079057075325   14.93940213919701
C         8.58440554754404   28.38999550452746   12.95620249562592
C        10.04116154139201   28.50115888289057   12.49816404685350
H        10.21588776408533   29.49303827509857   12.08675929379509
H        10.72879725999508   28.35477170358393   13.32812562266514
H        10.26317041361371   27.77337310926891   11.72105466277608
C         7.68069338310472   28.63554653717736   11.74020281767948
H         6.63004832331445   28.63148803777878   12.01689573238628
H         7.91015659731821   29.60026100510326   11.29367086151223
H         7.83963806353593   27.86269485094121   10.99106188358479
C         8.32943167625482   29.46810847151584   14.02009700234452
H         7.28342575989299   29.49619712710824   14.31329020856475
H         8.92584888114736   29.27108472741557   14.90911830810561
H         8.59882394051410   30.44763738561784   13.63172461157578
C         7.54111742043806   22.04922037016555   14.52876049301577
C         7.39314798066942   22.09515481551118   13.15223016533054
H         7.09854921355686   23.01923271751471   12.67640779632482
C         7.62890855809785   20.97084623915416   12.37701894144638
H         7.50717020255546   21.05763691671266   11.31012778097359
C         8.01468526637812   19.76340040896022   12.94643267519901
C         8.14828362900094   19.72420482655528   14.33301729684156
H         8.44417622378188   18.81131251642204   14.82628809668480
C         7.91898057774917   20.84344449686523   15.10319005805125
H         8.04336650809924   20.78479068978821   16.18698878147323
C         8.26433083773742   18.49980724061424   12.13903113934276
C         8.17845914542886   18.73919342838436   10.63000965639122
H         8.39752579979159   17.81337411012137   10.10274373457292
H         7.18134609818924   19.05989467967301   10.33832517838171
H         8.90121762484171   19.48738083597035   10.31257235226483
C         9.66213788241753   17.94873987592321   12.45498891274650
H         9.83668553883071   17.03663956905367   11.88845665029776
H        10.42398780441513   18.67438943231189   12.18154005492680
H         9.77106367972709   17.71833410156632   13.51156654385442
C         7.20198248282423   17.46150407969199   12.52933222904139
H         7.34690671623882   16.54521599627408   11.96175766613928
H         7.25648196664968   17.22212103448770   13.58849511798480
H         6.20537765296245   17.84307183323016   12.31721398782470
C         3.79108041005476   25.75105389514206   19.37151581652315
C         2.74834335570194   26.00369247431919   18.49515319306006
H         2.43858462015638   25.25019352484175   17.78630229375994
C         2.08995042815478   27.22273385464403   18.50494123742460
H         1.28380067602788   27.36682308868790   17.80441825070133
C         2.44874259969377   28.23287070243818   19.38740206461442
C         3.50713542344989   27.97393706202000   20.25550331952851
H         3.83045353749626   28.73076119668901   20.95316403497090
C         4.16673115952585   26.76221873028390   20.24874519717534
H         4.98594231276454   26.59731123069957   20.93602055570806
C         1.74958350371889   29.58090484488850   19.43998122984550
C         0.60785653371236   29.69354055800442   18.42658363717953
H         0.14445055235508   30.67392092038226   18.51164997225348
H         0.97395678990988   29.58410106813846   17.40819457948982
H        -0.15797507302869   28.94436805393823   18.61401967292920
C         1.16586155724288   29.78452587966516   20.84521364793304
H         0.64667314790823   30.73853992656485   20.89872355707008
H         0.45620313495321   28.99286641997037   21.07677235927774
H         1.94385895978924   29.77847751115433   21.60369483558560
C         2.77173334995637   30.68601045067506   19.13787542222602
H         2.28443889997285   31.65804513712781   19.15126826400228
H         3.57287848648756   30.69781278245618   19.87190464119633
H         3.21133523441462   30.53468775516250   18.15389190173989
C         3.97785957968934   23.48585182904748   20.47399268441827
C         4.79813580929393   22.46464416017547   20.93846003201999
H         5.78570979023404   22.33173915557973   20.50443743058625
C         4.39123089921995   21.62827028762346   21.95552913904141
H         5.07680568985240   20.86783500134752   22.29890622934735
C         3.13814272883561   21.77494048940030   22.54842935318123
C         2.30646113359921   22.76890293326014   22.04919790589212
H         1.32136776133308   22.91568464596533   22.46035756050011
C         2.71749406321668   23.61398394786620   21.03036396596832
H         2.05418720588340   24.39387031133822   20.68565970568347
C         2.75965520479558   20.88694006418153   23.72195215950311
C         1.32739604298802   21.12234433661510   24.20737080278927
H         1.11119663718851   20.45082987735735   25.03539363905546
H         1.19430504760194   22.14137956204629   24.56223562306604
H         0.60784112469697   20.92302396814124   23.41637008478493
C         3.72173946599441   21.19179477848150   24.87963459362328
H         3.49572517626615   20.55465694007211   25.73189257071494
H         4.75583124904587   21.02685180238407   24.58604799599604
H         3.62013759547967   22.22969407712886   25.18980045060591
C         2.89246091434578   19.41418421292239   23.31358888471419
H         2.60305466653191   18.77026197102635   24.14091867446843
H         2.24133934747807   19.20003208124549   22.46809043017463
H         3.91422875291337   19.17390913567246   23.03543621266796
C         8.22913416973702   25.01153497127526   22.35499258347890
C         6.90702480719737   25.19121932643474   22.74692354403596
H         6.19491092641698   24.38766500252976   22.61028320720196
C         6.49643939160644   26.37900295709532   23.31556526721398
H         5.46291888750859   26.47405887707840   23.61306399759233
C         7.38201922719515   27.43858316642124   23.50783944252888
C         8.69913352345193   27.24835446766060   23.11165524752133
H         9.42890958772654   28.03091896349827   23.23911584125788
C         9.11907066332033   26.05440434755678   22.54702154660258
H        10.15443782145623   25.94204350292162   22.25675067176255
C         6.88197591983670   28.72815584042463   24.13781882527782
C         6.37588314561575   28.42270714801550   25.55455216389760
H         5.56094207744152   27.70405568417843   25.53863017175430
H         7.18051753850788   28.01246640669125   26.16123299551936
H         6.01803825593300   29.33397816483044   26.02808716937230
C         7.97193865653487   29.79836323431220   24.23786698845593
H         7.55577341916386   30.69717784397272   24.68746585392539
H         8.79488341339994   29.46309815977899   24.86467492353901
H         8.35541846085296   30.06175628133947   23.25449765420063
C         5.73444866251310   29.29062800077273   23.28664537049243
H         4.89236374059071   28.60419275153601   23.25642348705412
H         5.38859940734782   30.23386219660020   23.70373115803063
H         6.07504133371143   29.46739428950455   22.26762436380830
C         8.58338919798483   22.55177841766058   22.72285051379281
C         8.29442736032567   21.27507216194547   22.26159489645972
H         8.12295659651038   21.11852486592760   21.19409567935012
C         8.20918347673182   20.20479049224307   23.12513618151880
H         7.97222490820643   19.23342931287275   22.71871108020247
C         8.41042444874470   20.36541847225791   24.49454255122749
C         8.71303971060753   21.64277908337926   24.94953046736687
H         8.88322479971708   21.82373235158564   25.99792769166087
C         8.79875202257647   22.71930969292710   24.08109348325130
H         9.02581247051517   23.70143881340003   24.46990727781836
C         8.30129860216271   19.15484768880550   25.40740816540053
C         8.50616033494243   19.50718403848464   26.88238215541760
H         8.40008161649910   18.60968953601806   27.48773618949058
H         9.50112289757689   19.91052973612559   27.05503773000430
H         7.76495513611546   20.22847859132265   27.21866908200202
C         9.37401472702104   18.13452438488531   24.99945998728233
H         9.32830702354839   17.26337333987364   25.64892924935385
H         9.23436536946131   17.80517530614645   23.97312967173200
H        10.36524336457258   18.57506646442153   25.08467957247501
C         6.90806869976156   18.52789389818088   25.25324461994633
H         6.82402873026309   17.64829810756146   25.88763644320339
H         6.14051718073171   19.23915329007109   25.55009057453950
H         6.71917319390089   18.22742046625203   24.22555717257556
C        11.72405360265341   26.34125455073694   17.48804354500842
C        11.22928449139025   27.21099244434978   16.52458197427828
H        10.43099634780926   26.88293094699699   15.87165021781868
C        11.74331988754550   28.48633887760992   16.38044851288758
H        11.32767982425876   29.12068092699629   15.61482941173851
C        12.76685725288591   28.94886244316395   17.19869706932321
C        13.24327143337742   28.07683866681559   18.17324465609997
H        14.03167240729113   28.39114000330002   18.84020271549335
C        12.73617542783714   26.79885407813332   18.31852689756039
H        13.13559098626698   26.16278115386544   19.09386379588851
C        13.36460210860848   30.33996215972873   17.07086666545551
C        13.15180388584058   31.09874380847964   18.38837509532096
H        13.63918260389116   30.59635700586017   19.21942588918839
H        13.56203052273066   32.10284685163089   18.31078362782565
H        12.08942844955359   31.17668720047944   18.61133950074467
C        14.86676788814518   30.21286366000978   16.78095328979922
H        15.38529917173044   29.69918471612801   17.58573698317950
H        15.02707706896978   29.65549296467755   15.86022451852911
H        15.30952219207221   31.19959824645419   16.66742750546663
C        12.72717262896852   31.15354275697515   15.94114690710072
H        13.19589135643941   32.13387899713145   15.89361120739812
H        12.87035732303646   30.66762896783554   14.97861177592225
H        11.66318788160374   31.30002278522451   16.11367781605552
C        11.72819658722339   23.98948300163318   16.55519877678066
C        12.80994825968470   24.30063692302452   15.75078686603368
H        13.33664308565250   25.23267036412651   15.89386987531164
C        13.20520097025662   23.44296748888187   14.73612941916906
H        14.04145289405652   23.73729770669790   14.12377147180654
C        12.53315248107902   22.25346888287948   14.48756968966068
C        11.47974658328003   21.92162515012268   15.33799663945757
H        10.92860813945766   21.00397360480558   15.19708276644700
C        11.09121239295112   22.77072763871651   16.35170779663842
H        10.25291321723517   22.49178301808667   16.98723343918792
C        12.85178139070425   21.35177130056794   13.30720783720733
C        14.11083408405741   21.78563963997932   12.55247852575851
H        14.30714044588844   21.08640267117904   11.74258699360854
H        13.98797667714481   22.77342030320841   12.11537122125581
H        14.97753862187369   21.79155212321012   13.20964109894667
C        13.05765315895568   19.91101782922311   13.79125382253232
H        13.30928337679731   19.26749255073855   12.95116953293346
H        13.87438488454422   19.87186702750595   14.50923160887670
H        12.16184760452557   19.51928741358811   14.26370168030228
C        11.65778644538556   21.41282284342253   12.34193260500616
H        11.84417327695941   20.78298258956188   11.47451412286190
H        10.74135606683105   21.08114286829117   12.82524098998543
H        11.50551158781211   22.43341023680284   11.99639948975445
C         7.35569777717829   18.67755648632892   19.56239271349772
C         5.96108961310279   18.94688727937932   19.54861027309742
C         5.10773804302483   18.23324000032992   20.37198339740032
H         4.04770580081083   18.43396457713001   20.31955482937098
C         5.57245932462482   17.25976550412036   21.24360256251145
C         6.94629065634939   17.02664394945208   21.28847481171700
H         7.32285675302061   16.28679246394173   21.98161980806577
C         7.83617433187907   17.68542741727238   20.46809452011374
C         5.35839619707635   19.89958948760913   18.56687072704930
H         6.00093829463543   20.78501397822478   18.41854899052229
H         5.23528003508412   19.43081451779983   17.59039795097471
H         4.38114729582639   20.23174592528044   18.90747727151223
C         4.65012944543806   16.46402371287499   22.10634850203063
H         4.85917984180256   16.64700380033235   23.16027129048099
H         3.61181500366186   16.71493265169547   21.90967899135792
H         4.79560669405790   15.39936410858615   21.92662396747994
C         9.29901470525389   17.38815243409240   20.62694328585822
H         9.88075522906324   18.30303400869601   20.71596538942855
H         9.46192987725588   16.79054576429056   21.52134468517712
H         9.68000777536678   16.82337585803013   19.77797637832627
C         9.32566383823835   18.78374020141549   18.07005613804279
C        10.65434706940323   19.28419211816792   18.05390098960986
C        11.61692377231102   18.67346604066844   17.26913895240579
H        12.62622023300045   19.05770544371247   17.29297084736812
C        11.32708755893557   17.57640751479894   16.47184839264606
C        10.01657119922199   17.10196186841956   16.46792748960540
H         9.77451834222976   16.25464023826782   15.84081998688166
C         9.02593679276718   17.65591606620690   17.25024992516990
C        11.09410244995443   20.37753999277665   18.97550083061513
H        10.28655444923866   21.10076122840438   19.16821024274377
H        11.39066058631609   19.96759661793721   19.94121001063079
H        11.94849419413712   20.90519168153627   18.55920697628638
C        12.37480742275121   16.89263472616544   15.65796062123917
H        13.32393125062305   17.41719073295069   15.71728372464466
H        12.51670585787103   15.87360307312110   16.01778210261012
H        12.07208129524972   16.83005949274724   14.61368236631511
C         7.63995033040980   17.08858453089531   17.14030354654464
H         6.89795636474308   17.87169330638099   17.00091263446728
H         7.58293158693223   16.40862795117512   16.29280830204261
H         7.37497452426832   16.52585468192524   18.03374905674016

