67
CSD_code = MUTBUY | q = 1 | S = 0 | Stoichiometry = C26H35ClN2O2Rh(1+) | MND = 8
Rh       10.99438296180179    2.90584462752314   10.16264706910956
Cl        9.16220182557009    3.51347848175212    8.91540308715689
N        12.07045151767662    4.46843300072806    9.24764333312578
N        10.55353542670958    4.44397728498470   11.53583523019366
O        13.48302839782360    6.17048020540104    9.08964138310792
O        10.92425880250956    5.44283787646042   13.48255649218261
C        11.51947577382126    4.43598853076080    5.47649839981880
H        10.45877946013983    4.66815743712822    5.51489965067297
H        11.67386806200554    3.66508906936749    4.72692056741051
H        12.05825272154501    5.32759939458030    5.16564735060791
C        12.00000689857961    3.94602702805485    6.83566167837704
H        11.41383154128644    3.07189366091055    7.12999793874004
H        13.05414807288950    3.66236832315304    6.78711769620550
C        11.80693044485048    5.01155913186029    7.91501686730135
H        10.76475393495939    5.34680723205442    7.88464581319829
C        12.80177421428372    6.18730706104363    7.83076424651001
H        13.54505203733189    6.05513171492020    7.04002521272324
H        12.31927986658512    7.15915928253012    7.71446848765940
C        12.98482117840686    5.17116262709526    9.80600754677993
C        13.60170158029129    4.94261071248313   11.12027848017176
C        14.99424400001585    4.95496682758834   11.16729550743621
H        15.54545327119651    5.10821386653178   10.25234727213241
C        15.66780264916725    4.78166891998217   12.36298968768483
H        16.74622995546490    4.78932919143420   12.37770028044043
C        14.95358016243154    4.62101182758699   13.53953311194433
H        15.47126708122188    4.50176355377204   14.47827745632186
C        13.57152168930441    4.63698514977209   13.51269819147236
H        13.00996547062415    4.54510283120629   14.42973921576647
C        12.87672520798543    4.78300409054008   12.31081746263271
C        11.41581182429721    4.86870399230765   12.38895157971472
C         9.49871906335961    5.35975495686752   13.41169747252349
H         9.08772168755978    6.34867035137120   13.61495341241792
H         9.15730058458315    4.66039199030161   14.18104836978695
C         9.22509537763373    4.87932380530134   11.97255343696733
H         8.52828213357949    4.03827855811013   11.92371871802414
C         8.71288343583102    6.01308347209206   11.07497207217395
H         8.80174064738391    5.69555522836926   10.03645168044739
H         9.34396738783805    6.89336669157534   11.22212608734895
C         7.25609436919816    6.34350886876906   11.37049947104702
H         6.62580452474796    5.48343148200151   11.16135048163967
H         6.93113002716603    7.16414454204373   10.73783094607740
H         7.11177437987187    6.63488836336202   12.40826282305208
C        11.22679050060128    1.31727136726727   11.70080081717261
C        10.19384446269729    1.01040062087519   10.75012305836217
C        10.81881082643318    0.85506505403155    9.45567097048966
C        12.20578913035870    1.15169281074765    9.60888678176063
C        12.46209249634831    1.43321867957401   11.00070804931448
C        11.05042752643553    1.38426865378588   13.18066321212906
H        10.05643591960709    1.73571671591192   13.44898589319913
H        11.79273814775502    2.03045143702681   13.64428873048677
H        11.17170413343543    0.38077537488421   13.59224228830433
C         8.78488585501707    0.61612470548989   11.05357285460572
H         8.10573178661505    0.99238771906842   10.29099886712721
H         8.46365743470904    0.98708017018182   12.02347658103975
H         8.71252921789642   -0.47241439264607   11.06220135611075
C        10.13214896551797    0.31252282452166    8.24832504913442
H        10.77751435338575    0.33787980671141    7.37484107773015
H         9.22470736385260    0.87306111923420    8.02780618072477
H         9.84743556448927   -0.72241926397476    8.44071578147349
C        13.27520283762566    0.97545526664682    8.58289424793366
H        13.74948088274407    0.00497000524009    8.73882441675635
H        14.04356877021360    1.74036004471937    8.67494675232787
H        12.87384402684481    0.99943423189613    7.57379523560824
C        13.82244689202877    1.51174241280598   11.61084100019525
H        13.79958354035337    1.98452036838785   12.58891073544661
H        14.51440674355236    2.06060070352670   10.97665433526826
H        14.21097297195850    0.49897232041314   11.73313445919459

