37
CSD_code = MUTCIP | q = -1 | S = 0 | Stoichiometry = C16H10Cl2CoN6O2(1-) | MND = 6
Co        3.15310965355791    5.01999285707978    2.82863782820096
Cl        4.06998751014762    3.59309713897543    4.26029299308800
Cl        2.40501729611142    6.40434911121644    1.26170070016373
O        -0.20524595829236    3.00820194766333    2.22625117951559
O         3.77505358597767    7.77492298460559    5.60754784516451
N         3.23209743633016    3.60091169473679    1.54433450062923
N         1.43063908688828    4.39355880160696    3.11653766128353
N         2.79186039242378    6.19907034580879    4.21531644404653
N         4.80671834430822    5.98274972752640    2.71672655516969
C         4.24250909237357    3.04906864394586    0.87507215194877
H         5.23577625352097    3.43382283676494    1.05115283841671
C         4.04354684861117    1.99307210877565    0.00075031110254
H         4.87055232432360    1.56079872375874   -0.54551117992275
N         2.84674986855708    1.46321441167039   -0.22076981511366
C         1.85529338150704    1.96541408446941    0.48944060727874
H         0.87178674698478    1.53409039469871    0.36727419627343
C         2.02835300051323    3.01936393230054    1.38520997036681
C         0.92671064166458    3.48244043002837    2.28210896962052
C         0.76031283867908    5.04394814160647    4.13562615612503
C        -0.53381655644375    4.78551786220980    4.56992124338232
H        -1.11212026230333    4.01684898753709    4.08351172528765
C        -1.05192367514492    5.52690058831955    5.61870424041038
H        -2.05922373252231    5.32991228425378    5.95950762509732
C        -0.29612041398721    6.51319120329739    6.23409105534428
H        -0.71642472407486    7.08007917381807    7.05351252962739
C         0.99489921197073    6.78549908874501    5.81315965353430
H         1.59197843415390    7.54924211786712    6.28440898051014
C         1.53054378056297    6.05217425753823    4.76173022339647
C         3.76599645215155    6.99675769286999    4.65679940112917
C         4.92926357379546    6.86175511608423    3.72894298192156
C         6.05761004437596    7.67269128039803    3.84064217747069
H         6.13519702175041    8.35474700705066    4.67549638018621
N         7.04308957484323    7.64797553476727    2.96446698682029
C         6.87915437785155    6.82943121984647    1.93240643358790
H         7.66322738915437    6.82964971356569    1.18788078472699
C         5.77331222762967    6.00542109963293    1.80102636756371
H         5.66132893204854    5.37551745495997    0.93149129664603

