58
CSD_code = MUTCIO | q = 0 | S = 0 | Stoichiometry = C28H23BrFeNO3P | MND = 8
Br        6.80721464336271    1.72761566387995   31.80070667507636
Fe        7.01877828462754    3.88109599088295   31.04688118699981
P         5.77623263243799    3.53174465134264   29.34945719999710
O         9.32333469968622    3.26343541403949   29.42984678459436
O         5.90766289424658    4.61563157073250   28.14760158408219
O         6.26792703410996    2.16352498268228   28.60056070500671
N         4.11313393605924    3.48659478171264   29.42125736052191
C         8.39212327980298    3.48414901651323   30.05997795140039
C         6.43521146636760    5.92047179754185   31.20831143594212
H         6.01103262952350    6.53448421890833   30.43015834179641
C         5.68985132900872    5.23094054144583   32.20445877112277
H         4.61768148037482    5.22702644490707   32.29913189036429
C         6.60209167457480    4.69882954294623   33.12879864034862
H         6.35190522819821    4.13873300167852   34.01499101405200
C         7.91351315507590    5.03390804141597   32.71144486945040
H         8.81793695761934    4.82779134736372   33.25808724870484
C         7.80696039796969    5.81440127810563   31.53833145030708
H         8.62301906061588    6.30308560549033   31.03225475118318
C         3.47044652691402    2.96243864010969   30.60620178730495
H         2.86974989602697    3.73373010483083   31.09911748277996
H         4.21939389889440    2.58946585497998   31.30151525534947
H         2.80982492063316    2.13210254936524   30.34261235174495
C         3.19600241357718    3.99080303049081   28.42326860281069
H         2.51749193205081    3.19550375544648   28.10057920450070
H         3.74538094044938    4.35186437952860   27.55851142640442
H         2.59910947972793    4.81243980111988   28.83222250397321
C         7.15091697020961    4.64951977984367   27.52383433884595
C         8.03003219996810    5.69320754183751   27.84410200463875
H         7.70696160710545    6.43645829336593   28.55540180013778
C         9.25812699294208    5.75069696249690   27.25127938790238
H         9.93989040997415    6.55555851897880   27.48272050929479
C         9.67293197019570    4.74076960221870   26.35883442970373
C        10.96531163350002    4.74535386222686   25.79376101577536
H        11.63118152344309    5.56064379969979   26.03727113538650
C        11.37337113371375    3.73451274142165   24.97038514058680
H        12.36596851883532    3.74261755648913   24.54524447673217
C        10.50871881531584    2.66673472159160   24.68750255976753
H        10.85196056651217    1.85823160873062   24.05944646215396
C         9.24410857467215    2.63992600569090   25.20571059729993
H         8.58997329998941    1.80767369161888   24.99620960026079
C         8.78173793621227    3.68318673582317   26.03583727592870
C         7.47686220310992    3.68002654041951   26.60073750873491
C         6.47281479501290    2.65090874099501   26.26673615214207
C         5.90269360867148    1.92195118566577   27.28924961986149
C         4.97069574508871    0.90267610729209   27.03825301174679
H         4.58039918248953    0.35452112360279   27.88173962444709
C         4.60058493281326    0.62288495743262   25.75508900413888
H         3.89619048601879   -0.16945891945255   25.54954559126606
C         5.10935999318269    1.37807774058794   24.67693412204738
C         4.69613767204289    1.13582121169358   23.35024674116018
H         3.99490122424916    0.33427281677445   23.16800006756064
C         5.16260664405165    1.90089817558280   22.31877770840352
H         4.84155596509539    1.70880017412935   21.30584487717889
C         6.05273814850327    2.95432349361916   22.57421984373664
H         6.39593603918157    3.56950660357390   21.75567623200201
C         6.48294461411504    3.20802865529364   23.84685048807911
H         7.15934001366660    4.02781538953303   24.03513099277096
C         6.04523578818920    2.41634257376326   24.93044120448978

