37
CSD_code = MUTCOV | q = -1 | S = 0 | Stoichiometry = C16H10Br2CoN6O2(1-) | MND = 6
Co        3.09580915235746    5.03422550550002    2.87303017952520
Br        4.13493528674882    3.48221718696365    4.41825329504347
Br        2.32391283132982    6.51948075619518    1.11909561591288
O        -0.23199140302872    2.92003641810695    2.34187369477572
O         3.62452517317031    7.87802559737156    5.60467322696077
N         3.17147286186373    3.59286700741966    1.56520860386205
N         1.37077378957905    4.38301119117508    3.16303897360443
N         2.70662838550311    6.23335966680520    4.24964137782885
N         4.77209321346231    6.02277139582059    2.79730927243527
C         4.16193502376819    3.08337716784273    0.83423091585804
H         5.15136797962117    3.49618306371132    0.96208370242755
C         3.95134809562329    2.03639708925836   -0.04653844208410
H         4.76271673854165    1.64114756946744   -0.64139233828764
N         2.76247621532326    1.46948077370422   -0.21205916708003
C         1.79163758661559    1.93452141138142    0.54824256848097
H         0.81505074238047    1.47903319986860    0.46760353666266
C         1.97607127423324    2.98430321705089    1.44623128305525
C         0.88505088910937    3.42965231896644    2.36373624355772
C         0.68957370061907    5.04304027790170    4.17072453574400
C        -0.60325708585324    4.77247563974967    4.60155057097215
H        -1.16485534209530    3.98404433406961    4.12749759140954
C        -1.14063824051419    5.52667746621906    5.63002992841888
H        -2.14679698927589    5.31948978741266    5.96749652707928
C        -0.40628499059124    6.53903626918643    6.22898606111709
H        -0.84216341707661    7.11760735184756    7.03176453444661
C         0.88291409649718    6.82267460088136    5.81324319156423
H         1.46374324360177    7.60629920895227    6.27184593155132
C         1.43915898342029    6.07558257768835    4.78235621594632
C         3.65420884764449    7.07029453798954    4.68019341671826
C         4.84727355909405    6.92577099003212    3.79357454929921
C         5.96960915397828    7.73861128729175    3.94218429153509
H         6.00216887810089    8.44287334688535    4.76113033908256
N         6.99974368677163    7.68658853086379    3.12185864862521
C         6.89364475683112    6.83310063783358    2.11069480060484
H         7.71914856489352    6.80409698479524    1.41350718782040
C         5.79294184300046    6.01088883039022    1.94132392922393
H         5.73225291475081    5.35225680340064    1.08797520630197

