51
CSD_code = MUTKAO | q = 0 | S = 0 | Stoichiometry = C20H18CdI2N10 | MND = 4
Cd        5.99676763773284    1.48912219249511   13.43458265010652
N         4.24129929919741    3.00524837521147   12.87998700205278
N         2.94522776878776    3.97448972683930   11.39437894300203
N         3.04353549102604    4.99784669541503    9.27318937794723
N         2.79538816585240    6.31346795870198    9.09176363551759
N         3.67523524085078    6.83137111141153    8.35410624628579
I         6.50733463234310    0.59396477255156   10.95563220593251
C         4.04209940956218    4.30263702449702   13.25286536712114
H         4.47456498845951    4.69767921753131   14.15236313838668
C         3.24174369807694    4.91811657771734   12.33893075056257
H         2.87247740273871    5.92052246757412   12.27325658254010
C         3.57567612381891    2.84369826737658   11.76234060829597
H         3.50956263208481    1.92577458843870   11.20777012472055
C         2.24242299240138    4.20899699811719   10.15629370789430
H         2.00788476623637    3.24134287351906    9.69860018305183
H         1.32268720735017    4.77267149857710   10.34772564253281
C         4.59152758363133    5.88004608186504    8.00626800971936
C         5.74935557620354    5.94031459534572    7.23157105160340
H         6.04960809672578    6.86511142393238    6.76721733639954
C         6.47402608650652    4.77892400020111    7.10052275899195
H         7.38080969148064    4.78176812482378    6.51495078453949
C         6.07269804939743    3.57994612032725    7.70694643505532
H         6.67937810808225    2.69663807977840    7.58252469163840
C         4.92741277209390    3.49350102110331    8.46640040157112
H         4.63282450435873    2.56261132604023    8.92229529392023
C         4.19369314644378    4.66273429174441    8.61103933902731
N         7.74957654103093    3.01048237015893   13.98524766389727
N         9.05126788162422    3.97918093519400   15.46630534272566
N         8.96169401369072    5.00040517069743   17.58888719857500
N         9.20982941886130    6.31601303188861   17.77044181993024
N         8.33269360185307    6.83277436653818   18.51211990904852
I         5.49207431991621    0.59749691594830   15.91596471492318
C         7.94589291516879    4.30850768946629   13.61308626447485
H         7.50903527646195    4.70426871204613   12.71603549340156
C         8.74966161303427    4.92366794201115   14.52423743321218
H         9.11823772932865    5.92635513661368   14.58950491389998
C         8.42029965881744    2.84822707588371   15.09973875619891
H         8.48972925115048    1.92970230531329   15.65292690761471
C         9.75938075314553    4.21287194213229   16.70152452660136
H         9.99646946365236    3.24489780825677   17.15722153570795
H        10.67795767290588    4.77724848515023   16.50661749254333
C         7.41835451629257    5.88062920714228   18.86284205965407
C         6.26359475547971    5.93958360415505   19.64220353489274
H         5.96468803669648    6.86380593253585   20.10856240890901
C         5.54006282758830    4.77769080101083   19.77508435894269
H         4.63561484818987    4.77952639549163   20.36425834602585
C         5.93961975871287    3.57946065461565   19.16601704882202
H         5.33394328737187    2.69570274406563   19.29210979924015
C         7.08193682264043    3.49430381270138   18.40195992187142
H         7.37522902508778    2.56397814432106   17.94408273245605
C         7.81441493985846    4.66407340551458   18.25539754800423

