63
CSD_code = MUTLOC | q = 0 | S = 0 | Stoichiometry = C29H27ClN5Ta | MND = 6
Ta       -7.08686024112309    2.19551242748705   17.03421290634103
Cl       -6.51933568057994    0.04496262853370   17.63166358914834
N        -5.45756449145154    2.74743636019268   18.25714965943613
N        -7.18128962050738    1.46117232611274   15.03692471867740
N        -7.50208188823274    4.24461637128558   16.93343111407891
N        -5.41713908123790    3.39009488476529   15.56553577566736
N        -8.99441629412908    1.91748958793615   17.57078531229465
C        -5.11434320878557    2.26843774741678   19.49647716277232
C        -5.92379185587524    1.66390714673077   20.45202274161299
H        -6.98373185247593    1.52704380347758   20.27594455428063
C        -5.33549603499657    1.25818664503710   21.63254679191336
H        -5.93914585579151    0.78520504925948   22.39338342918596
C        -3.97310469581174    1.45162419212071   21.86966849490539
H        -3.55247118249048    1.11970249345897   22.80779104357741
C        -3.16301916858724    2.06091551922397   20.93552406243745
H        -2.11101050780720    2.21499840937740   21.12620472917775
C        -3.73136373205346    2.47807456821695   19.73561118018969
C        -3.23474157113555    3.13049327264067   18.56926836184211
H        -2.22679987642397    3.45432286174849   18.39481805417243
C        -4.29831880138225    3.27207881190577   17.72413896963940
C        -4.37779332179275    3.98843705532935   16.41033610708894
H        -3.40164287338152    3.99055345194034   15.90849223564292
H        -4.65863509651727    5.03028581613918   16.60881510251211
C        -8.08096010341152    0.64124456890612   14.39316982558856
C        -9.29331528705665    0.13005903328967   14.83945001371825
H        -9.64604512028204    0.34710335324770   15.83405818797386
C       -10.00748968096441   -0.69003897639089   13.98972114846732
H       -10.95051345214899   -1.10231378118221   14.31797858640508
C        -9.53463533390520   -1.00922014793834   12.71599114367195
H       -10.12585683293724   -1.65196282840089   12.08037935299114
C        -8.32079623271823   -0.53338774188384   12.27011797068130
H        -7.94092704753962   -0.79871977593276   11.29460140943740
C        -7.57949482398828    0.29001084030475   13.11210990014830
C        -6.30158044333229    0.91351012389268   13.00762561361874
H        -5.62207026942096    0.85319895208172   12.17989502085180
C        -6.10496303240598    1.57940684158364   14.18170437637112
C        -4.92122817545907    2.36327962155318   14.65796777166573
H        -4.36868662264714    2.79150610204940   13.80778968553644
H        -4.23974499563676    1.70827795615177   15.21799514358520
C        -8.12001126612171    5.08769046563725   17.82774021874487
C        -8.63000842717038    4.80278552327844   19.08981967473443
H        -8.55604661828801    3.80552443179297   19.50394483638184
C        -9.19332261986945    5.83621471153369   19.81049973591287
H        -9.59368974020811    5.64293092004055   20.79511176119016
C        -9.24602109441329    7.13504428508369   19.29998421071061
H        -9.69974952866933    7.91424095763444   19.89474566309680
C        -8.71008739732630    7.43955603660855   18.06736047571703
H        -8.72683077254566    8.45028700874993   17.68716866899193
C        -8.12966289308577    6.41484305270411   17.32519682402265
C        -7.42984366950128    6.36081782616776   16.08396721092006
H        -7.22164750466931    7.18331845752570   15.42748098460056
C        -7.06781303319890    5.05638442776420   15.90814928959952
C        -6.21309538212097    4.40670925937480   14.86867032425932
H        -6.83320760695079    3.90393488764100   14.11623629749850
H        -5.58116491618705    5.14524308328414   14.35689966047304
C        -9.46383598193023    1.06197306295447   18.64237449386210
H        -9.73460544114748    1.64698286974068   19.53161676703030
H        -8.68781066354108    0.34558594737807   18.90807737899937
H       -10.35664729972349    0.50563338170371   18.33424817844701
C       -10.10294749758247    2.70567055818346   17.06245114912434
H       -10.92606580338054    2.05805842584153   16.74155145443373
H        -9.78117027699786    3.29789708367539   16.20652548777805
H       -10.49181017893830    3.38286776404434   17.83267800616472

