43
CSD_code = MUTPUN | q = 0 | S = 0 | Stoichiometry = C12H26N4Ti | MND = 4
Ti        0.33972390222731   14.85231747012951    7.36364786120839
N        -1.27042767511770   14.08066220365214    8.07386184584256
N         0.71566014170545   14.09833528083807    5.72276010890924
N         1.75757719183190   14.69732945075630    8.54877315800749
N         0.13404243448075   16.66149428894002    7.02904963411275
C        -2.52502033463951   14.56314795175211    8.33492535952910
C        -3.32669665047576   13.54554834292823    8.79537866303850
H        -4.35823853563559   13.62394770203107    9.08464397269625
C        -2.53445066358311   12.37752571944021    8.81180173664466
H        -2.84769306415123   11.39533098929018    9.11461725191360
C        -1.28698558656245   12.73804531135906    8.35990796688883
C        -2.87616455101477   16.00115473620057    8.10732544012510
H        -3.93736060465582   16.09047131337566    7.87994947807070
H        -2.29157280284894   16.39997050818772    7.27150920872042
H        -2.67173976158901   16.60388592038572    8.99677897292239
C        -0.08189901798667   11.86789330978834    8.14030396908041
H         0.10500911639007   11.24741775689787    9.01868053485403
H         0.80202545669770   12.48923011476876    7.93917991512969
H        -0.24500257830551   11.19581545150094    7.29292389394304
C        -0.43162364529502   13.83780518420003    4.88520396533327
H        -0.22789043200345   14.10737398933710    3.83299381521294
H        -1.28971126113528   14.42676068430806    5.23711090628468
H        -0.71080219923140   12.76721359501441    4.89720695197626
C         1.87322386090998   13.36179515934886    5.28484767170469
H         1.66783627825286   12.27641633586475    5.22938975585854
H         2.70312779978777   13.52315458995689    5.97963606533941
H         2.19369378033454   13.68162058810337    4.27721803031340
C         1.57511169452040   14.47078731131261    9.96203837783627
H         2.33795573198338   13.77718227150560   10.35789414094285
H         0.58494143677941   14.03860747439094   10.14950308992953
H         1.66413406313303   15.41127308856621   10.54097410084921
C         3.01382431382530   15.34939367940354    8.27093743998994
H         3.14788188450714   16.25926974369155    8.88634603146497
H         3.05494092221701   15.63264259013236    7.21155243166916
H         3.86912614977527   14.68542100829357    8.49218845848718
C         0.21081606858202   17.54721822125830    8.16726559773555
H         1.21673023380449   17.99696070245283    8.26950262974549
H        -0.02797665360999   16.99325552880469    9.08395385706362
H        -0.50421305524783   18.38285537756275    8.07006360829016
C         0.47707663028456   17.34806604679613    5.80910392714656
H        -0.21452429522933   18.18714114083081    5.61753626612083
H         0.42379886703034   16.65439282391924    4.96506462561401
H         1.49813540926872   17.77436904271172    5.85294928345672

