98
CSD_code = MUTQID | q = 0 | S = 0 | Stoichiometry = C50H40FeN2O5 | MND = 7
C         8.30408187036992    4.54243216489225   10.02470270403284
C         9.87787229527645    2.80493235042832    9.90102748151975
C        10.38643201679599    4.91001222954567    6.62246414595016
C         9.03592722886691    5.37431374746795    7.03176989401257
C         8.16868371022951    4.24130372068533    7.11352055666010
C         8.97283524315383    3.05704291387988    7.02462558515398
C        10.33290016318978    3.44971618787007    6.83412872982821
C         8.58300242869973    6.76389588282818    6.97157166040316
C         9.30454234636063    7.72143762988373    6.25804022808745
H        10.21003735068937    7.42834892855689    5.75129111622864
C         8.87199176105222    9.03343940480260    6.20569082215793
H         9.44199103636687    9.76128827705197    5.64581210328833
C         7.71481463094531    9.41785376600266    6.86159319033163
H         7.37653727071338   10.44289039208117    6.81526739678366
C         6.99533471613381    8.47828232690932    7.58377951484967
H         6.09634870668407    8.77071087577973    8.10734646209035
C         7.42502203210161    7.16816567409468    7.64437862039248
H         6.86688753560043    6.44914765672423    8.22766539303234
C         6.70835242561240    4.25034124301950    6.95275575142584
C         6.16039289896626    4.89872503822558    5.85101578533761
H         6.81181969297369    5.41072669014180    5.15779355004587
C         4.79645080948943    4.89728829780902    5.62361851344485
H         4.41241421623101    5.41226451987324    4.75713208314174
C         3.94660362994944    4.23773908436643    6.50443066100278
C         4.49125783040095    3.58524097078371    7.61167202965933
H         3.82080446445572    3.08230835370706    8.29028161235742
C         5.85050893370440    3.59139071732893    7.83012137294413
H         6.25632896134393    3.10277635310655    8.70249111156282
C         1.98133094346485    4.82603349415924    5.29775172168790
H         0.91287040421999    4.64686368469223    5.40781259302280
H         2.31879719474629    4.41716434248741    4.33956310080004
H         2.17092682732789    5.90434754539576    5.31923161422503
C         8.44018703030211    1.70328761488258    6.79792514738802
C         8.52490640838857    1.15299926850483    5.52559529967312
H         8.99025875579469    1.71994444408011    4.73241217403412
C         8.02395764833522   -0.10808298492416    5.25626951972063
H         8.10896857533971   -0.49967171730193    4.25487200308377
C         7.42570588176505   -0.84780549351579    6.26965583074466
C         7.34687348444590   -0.30302695099367    7.55241236422534
H         6.89061090872629   -0.89273222792453    8.33162292377634
C         7.84764278799085    0.95314712323587    7.80991709393211
H         7.80800897094204    1.35659308054855    8.81205884921761
C         6.95694186407797   -2.70325120177447    4.85505703855728
H         6.48952170774174   -3.67950567530630    4.97443892009499
H         7.99019756060074   -2.83639924284507    4.51789593833724
H         6.40236956511774   -2.12655822468093    4.10738670108260
C        11.40280098716541    2.51704687591778    6.47544586536034
C        12.37148930235691    2.87298596719146    5.53697323774397
H        12.33436279339239    3.85232222656188    5.08630561652025
C        13.37423846301152    1.98583390381939    5.19254067416890
H        14.11664357249776    2.27552160112495    4.46226767158845
C        13.42967820823308    0.73066448706688    5.77458741630268
H        14.21357169195555    0.03876938702702    5.50278597933916
C        12.47559154166481    0.36878369331937    6.71251136637582
H        12.51614269218681   -0.60607089818271    7.17668780790523
C        11.47486119348299    1.25219971646502    7.06368964201736
H        10.74675995293945    0.97126268218133    7.81153814290012
C        11.06872665172302    5.39395595958314    9.30937354340282
C        12.23521152958149    7.27848744705437    9.59797268070326
H        12.38628449827803    8.31875132153091    9.79866630431340
C        13.11396542653026    6.29251794482174    9.31206181183250
H        14.17924200710810    6.30650773671608    9.21137359821057
C         9.80765010394369    7.42330274564996    9.99749763520204
H         8.93715417624858    6.86662443342958    9.63895048240521
H         9.80150180982000    8.41119856068568    9.52979047681228
C         9.74223834991960    7.54375633232266   11.50113639606156
C         9.99844947075461    6.43254810550282   12.29507485056417
H        10.23956749975621    5.48864060605448   11.82255124977388
C         9.93327843637050    6.52799842124867   13.67272568686761
H        10.13208636349745    5.65816258568564   14.28079866234411
C         9.60751522949401    7.73422277406823   14.27070631075901
H         9.55430140981911    7.80817880417409   15.34652930568993
C         9.34567539412596    8.84290751657919   13.48503478116944
H         9.08766004446097    9.78468035242949   13.94607948601019
C         9.41651173264363    8.74885171764464   12.10554966407354
H         9.20999054244024    9.61533603875643   11.49353693593746
C        12.99167198648395    3.86784342841506    8.90100981179605
H        13.48402987755960    3.87951012969191    7.92443653505036
H        12.19130470563764    3.12168197658165    8.87160520037643
C        13.97072049103655    3.51446327119514    9.98951520853196
C        13.59879828612589    3.64756212369317   11.32193772846478
H        12.60648195425967    4.00185218504008   11.56417766527519
C        14.48741876823472    3.32557396271193   12.33086091644659
H        14.19048930123732    3.43407415132434   13.36336884566252
C        15.75418815179449    2.86071240080328   12.01771371564691
H        16.44796994317105    2.60830503300785   12.80562366517306
C        16.12697378496734    2.71724150721803   10.69255003548541
H        17.11224591832105    2.35158870518562   10.44403834335428
C        15.23955353526615    3.04585601977291    9.68205712202995
H        15.52982525511857    2.93321228407491    8.64731974691935
Fe        9.50980869898646    4.12937398331385    8.82103827546251
N        10.99035504865723    6.71080587663904    9.59084227536844
N        12.38255304195345    5.14922233580433    9.14769206181459
O         7.51637967951333    4.71807296890577   10.84534432783856
O        10.07982449012560    1.98101946947043   10.67944855074361
O        11.35463988523534    5.58746409404845    6.28543914664726
O         2.59084554828861    4.17217015478063    6.38313597226845
O         6.90031784709493   -2.09641738458318    6.12213465790958

