53
CSD_code = MUTQOI | q = 0 | S = 0 | Stoichiometry = C20H24I2N2O4Zn | MND = 4
Zn       -0.45735248277342    4.67468287910579    3.22615601314916
I        -2.95641813426535    5.08061210900627    3.27848663630406
I         0.93945327449913    3.04114922104686    4.57930007258258
N         0.60103383466253    6.48564154195096    3.26561759452593
N         0.08903750466763    4.62501593190252    1.16414559981741
C         0.38747009054008    7.61718413048653    3.81461791662900
H         0.86093664276475    8.51547417528701    3.40210397369357
C        -0.47217532309439    7.82041662543583    4.94835150074264
C        -0.99120041841420    9.09088804235631    5.18732118300001
H        -0.72567858904933    9.91213709013598    4.53835824064864
C        -1.88002447736389    9.30151454044347    6.22424681246732
H        -2.28623342884745   10.28923291298129    6.37122660024282
C        -2.25298124826374    8.25936754456454    7.06312495218564
C        -1.69890470570687    6.96633135778348    6.85701708465959
O        -2.08919118999822    6.02102470488385    7.73724662796795
C        -1.70448421847106    4.68337240776002    7.50374021064643
H        -2.06208022439500    4.33245311326218    6.53164987825225
H        -2.18226926493399    4.10072304962930    8.28859289496002
H        -0.62029446100616    4.55171386334039    7.56870727722231
O        -3.10869134335178    8.36063795421388    8.09791552648196
C        -3.74749339026204    9.59181586997543    8.33741703150769
H        -3.02846880360982   10.37442722133948    8.60022102656777
H        -4.41236481614188    9.41614496464658    9.18115099826529
H        -4.33670107306823    9.91162918053045    7.47246916535183
C         0.68198334912953    5.91446412708086    0.91464627733247
H        -0.13054173297052    6.62972605810097    0.72855259087267
H         1.33224581847945    5.89709709344170    0.03006474876880
C        -0.04285802406788    3.82861202313604    0.17293567176883
H         0.34006483784784    4.14570265085618   -0.80402911101594
C        -0.67896732057454    2.54168607333199    0.16642691099813
C        -1.22776942286275    1.94057604429798    1.30980734306459
H        -1.15059175964278    2.44947645484216    2.25458037522831
C        -1.86133303655601    0.71825235817965    1.24646661610443
C        -1.96583284769294    0.05478658820209   -0.00740713403930
C        -1.41655071747177    0.64707261650888   -1.13692409729725
H        -1.48424786650715    0.15748948102984   -2.09512421128803
O        -2.61104720327392   -1.12643930872899    0.01912944551276
C        -2.78495590002636   -1.83835345918437   -1.18266655262298
H        -3.36159685102664   -1.26023213699127   -1.91152218809560
H        -3.34088810209167   -2.73443826038072   -0.91292811385147
H        -1.82470005495274   -2.12646039695347   -1.62184553596266
O        -2.41545019417372    0.06637689799282    2.28799302201164
C        -2.36117594713829    0.66187111120980    3.56747400496290
H        -1.32922720775833    0.78634291738282    3.90750997803234
H        -2.87336797067730   -0.03077491262441    4.23213125249483
H        -2.88208243624546    1.62381690497927    3.58265652357791
C        -0.77926435429779    1.86954299026242   -1.05257867212391
H        -0.36340482916612    2.31097624745335   -1.94617043766377
C         1.47453922378103    6.39695118404536    2.13035440271068
H         2.25650298062110    5.66527435838119    2.35938874656532
H         1.94604587966350    7.36177124024024    1.89815943235703
C        -0.82578844761474    6.76911617291716    5.80856430101915
H        -0.36386361685736    5.80572644891660    5.66836959270073

