83
CSD_code = MUVCUC | q = 0 | S = 0 | Stoichiometry = C43H30O7P2W | MND = 6
W        17.66672801134305    1.05916807895825   10.63851791159402
C        18.80019480004660   -3.22771838399102   10.95005049545809
C        18.80345756725086   -1.81403582804297   10.51510518762840
O        18.03410199629876   -1.16514678141986   11.33000667583197
O        19.39500010708977   -1.35131299609130    9.55193474796020
C        17.01742506581254    0.27170517811528    8.91995313106801
O        16.68695282628391   -0.25673622095447    7.96230590554746
C        18.45144183364229    1.68820172780034   12.35462578895662
O        18.98768442938831    2.04129895569215   13.30625816696174
C        15.85458818167115    0.85281018373828   11.43500298538993
O        14.83040183241244    0.66899632917198   11.91880288125025
C        19.53653787724857    1.12183254886944    9.91259827482627
O        20.62132743969382    1.23707446751538    9.57831283460093
C        17.32293194717113    2.91113259183617   10.06173353577034
O        17.12327412615643    3.99643448294534    9.73565965554821
P        20.36922112732672   -3.95738835337547   10.78805855363268
C        21.78598100297047   -3.15094846234763   11.60319929427812
C        21.68655428236863   -1.81613177772607   11.98110577295712
H        20.77306812551604   -1.26731627012349   11.80209353783498
C        22.76124034871972   -1.18783003598584   12.58467015227453
H        22.67881650592376   -0.15141858690287   12.87446216018408
C        23.93443500305467   -1.88814280443439   12.81288547386929
H        24.77260680559291   -1.39751426102482   13.28467511002552
C        24.03754042762720   -3.21839803964852   12.43488034825077
H        24.95416021996855   -3.76216889286823   12.61063265278105
C        22.96869922501678   -3.85306492171103   11.82964156671674
H        23.04417376551974   -4.89056422213617   11.53116821653601
C        20.37815875753202   -5.68083687442847   11.34139569450234
C        20.67166491439148   -5.98951398242041   12.66540937368660
H        20.94598245996228   -5.20269336781114   13.35436455054619
C        20.61794735193294   -7.30139607788975   13.09527448179109
H        20.84378967170253   -7.53911616426381   14.12385480452521
C        20.27422631476600   -8.30851231882529   12.20779270466029
H        20.23449947547891   -9.33296361531302   12.54591199182263
C        19.98419989794450   -8.00344156028829   10.88829738507332
H        19.72097081867153   -8.78958793462794   10.19638666824906
C        20.03227399763559   -6.69162193408080   10.45251015981762
H        19.81019913460234   -6.44645332266245    9.42326450205893
C        20.71628191341723   -3.92823625351457    9.01529158772393
C        19.65547877542158   -4.13188073148793    8.13752920995169
H        18.66123621543211   -4.28560701162690    8.53370527184966
C        19.87614297074730   -4.09960386919489    6.77443608678140
H        19.05200644339817   -4.24473175394719    6.09194570873201
C        21.15116377938194   -3.86447801962674    6.28423540732159
H        21.31994226899603   -3.82747776774667    5.21837839488156
C        22.20608424299951   -3.66114977233563    7.15792305648596
H        23.19644278723537   -3.46573875616973    6.77419211421890
C        21.99409294025105   -3.69194606803059    8.52485963330263
H        22.81437984356659   -3.51451995507847    9.20608199893653
P        17.81914681928701   -3.01673255189197   12.41043955750627
C        17.71911353560151   -4.70456062646659   13.12801214455132
C        17.90115125154839   -5.02562756532057   14.46550120969878
H        18.16696956904097   -4.25583282104173   15.17661893848975
C        17.73931781824566   -6.33224899267705   14.89461491064140
H        17.88454343688503   -6.57485546478741   15.93742555442491
C        17.38402335036098   -7.32308297631853   13.99640832159555
H        17.25570159159262   -8.34007349418182   14.33625158913404
C        17.17990473151634   -7.00650955970863   12.66266313819164
H        16.88847117108587   -7.77486266847475   11.96173505131313
C        17.34300601649640   -5.70417647329781   12.23509504286734
H        17.17507748478937   -5.44008643788158   11.19889236433588
C        18.35089285382456   -1.98164593493101   13.80422851809040
C        19.57740452159867   -2.25436394068982   14.39775412881027
H        20.15930541889953   -3.10059041235139   14.05181819981516
C        20.04997606979158   -1.44025522270471   15.41036915074122
H        21.00935447283511   -1.64580844449535   15.86316426283841
C        19.29353964922016   -0.35958896902210   15.83508578016590
H        19.66314803360824    0.27893218666288   16.62334820234354
C        18.07120309718927   -0.08741182787687   15.24155958494092
H        17.49028833499629    0.76256924691527   15.56649943999486
C        17.60069107369113   -0.88731362689899   14.21564376910280
H        16.66259012709670   -0.66628455908434   13.72646053679951
C        16.05785310113977   -2.79520945647588   12.04632962379944
C        15.59831742505191   -2.57666157681278   10.75410210134299
H        16.29869564906882   -2.55198460930728    9.93064492889167
C        14.24745613109888   -2.37847030526532   10.53397563620677
H        13.88918976426354   -2.19412186959353    9.53199097233903
C        13.35942253340227   -2.39772464415908   11.59722202081529
H        12.30816997693972   -2.22292713004475   11.42365735529505
C        13.81600483061747   -2.63780124954061   12.88322742421420
H        13.12157300489818   -2.65677350340313   13.71028853773114
C        15.16402111856381   -2.84464110320717   13.10986515990309
H        15.53516617918164   -3.03698401013637   14.10882503848772

