40
CSD_code = MUVCUB | q = 0 | S = 0 | Stoichiometry = C13H19Cl3N3NbSi | MND = 6
Nb        4.23568723569665    1.58022030485531   -2.53050294730955
Cl        3.54618442174395    3.59441080559485   -3.36155876899249
Cl        6.25289970680927    1.46243132363364   -3.74217680097305
Si        6.70281863552485    3.48769292152742    4.64891445253829
Cl        2.06598624032366    0.69855090861926   -2.15044064152148
C         8.42685581563308    2.70794375038979    4.91436828136867
N         4.78906318919539    1.98174978712518   -0.88918128738091
N         4.71333617573295   -0.66418334739921   -2.26645731854029
C         4.58325759771086   -1.77779791069027   -2.49748679455921
N         3.52842153522796    0.65104153705285   -4.82612309626800
C         5.20364874031045    2.32040772408104    0.33099262339106
C         5.39007466677497    1.34411158120434    1.32672990864799
C         5.89896941322270    4.00021322234826    1.91824436310458
C         4.42952912626042   -3.17087888012384   -2.75894696650960
H         4.85822471898976   -3.40754773049456   -3.73237532060102
H         3.36746295547576   -3.41643559106378   -2.75846581133707
H         4.93746498982940   -3.74817670922993   -1.98677901536466
C         3.16078190669707    1.37538968158675   -5.63360805992998
C         5.82603210608854    1.70923472668114    2.57958443228203
C         5.46846403691376    3.66337806727165    0.65473313279507
C         6.09090471921130    3.03908307958759    2.91031015686166
C         5.48350990951245    2.78812351972587    5.94202217665258
C         6.82236530247195    5.37942080276954    4.85287733973279
H         5.86551487306605    5.85991032764463    4.67302529273719
H         7.54463197835246    5.80888673402511    4.16543720722349
H         7.13524663053587    5.64203145633256    5.85898478765573
C         2.70112667700207    2.27558351669804   -6.64258944053377
H         2.66223029922772    3.27842203233481   -6.21321854243092
H         1.70512535162943    1.98376993042393   -6.97494269847138
H         3.39141612172323    2.26861524600685   -7.48607076288107
H         5.40880038508608    1.70748918468179    5.87060385787308
H         9.14642254838198    3.08849333296733    4.19567052575219
H         8.39208587820427    1.62888739530896    4.79948164912869
H         6.09445060665005    5.03767364467845    2.14546282924038
H         4.48562094676946    3.19337096742943    5.80416879780926
H         5.18263828157139    0.31288020829692    1.07039253910101
H         5.79977472499891    3.02776467782198    6.95283217967544
H         5.96680577749730    0.94410971441332    3.32985422830348
H         8.80955327514440    2.92041421014015    5.90813784548050
H         5.32131249866591    4.41001384640987   -0.11540433370975

