46
CSD_code = MUVCOW | q = 0 | S = 0 | Stoichiometry = C14H24Cl2N4PdSi | MND = 4
Pd       -1.44690312112624    4.20275539020861    8.96246115039511
Cl       -2.66613321217326    2.97829446523833   10.37927417986680
Cl       -0.13264723486531    2.42493922624136    8.59039691981403
Si       -0.14315283155499    6.13788333148445   11.05832245770321
N        -2.12967602382834    7.02188591845324    9.23821588588767
N        -0.06566907712162    6.63964020579651    8.20814989877865
C         1.01010037911389    4.64499065648012   10.78376902109190
C         0.75228174874521    7.30165012908341    7.35633212070746
N        -0.34209304463326    5.41389720127897    7.73903210005607
N        -2.68619933878595    5.81755156530406    9.07497745797028
C        -4.87649720191993    4.83301701944648    8.60383629343136
C        -2.76018287712362    9.43843276328882    9.32754157671899
C         0.27870374304692    5.27088936916823    6.57883820073759
C        -3.06841697974099    7.99444489618915    9.16726589129640
C        -3.98268331404536    5.98639313827653    8.87404728288120
C         0.14226473728997    4.03931305141920    5.76417027107307
C        -0.70568854626631    7.11582426455695    9.40925855872499
C        -4.27153303043479    7.35858843947604    8.93907002135937
C         1.24735725715275    8.67975982171581    7.60376670770612
C         0.99647529067194    6.44519169432182    6.30323326746326
C         0.90648304705731    7.51930705024311   11.87787454364948
C        -1.70578461325414    5.86080937431436   12.11422399021240
H         1.60865646176049    6.63681788510785    5.44636147063684
H        -2.29918858926406    9.63342640543784   10.29578687900387
H        -1.42143269146015    5.65810938197715   13.14180993150129
H         1.81277469218473    4.66098216188983   11.51574183648404
H        -2.35985091762361    6.72938852365617   12.11930191967776
H        -2.28059148015168    5.00388143522623   11.76100596576129
H        -5.23150032521690    7.81947791819859    8.82979403311035
H        -2.08241418973628    9.78448271617122    8.54645643737398
H        -5.66035142246091    5.10837312185266    7.90213578899963
H         0.46914127856858    3.70383933438881   10.91121833778649
H         0.33359848007079    8.42498669713326   12.04960659943472
H        -3.68014686400851   10.01171871731114    9.26054933140878
H         1.27209749476499    7.18477698171692   12.84172789868759
H         1.46632412472209    4.62421897748465    9.79371807556696
H        -0.45212508577207    8.17087820938470    9.51474834935499
H         1.78183713075703    8.73719177437943    8.55144710805692
H         0.15652237472493    4.27863787243814    4.70333669549911
H        -0.79107484019077    3.53420270206499    6.02373574257008
H        -5.33589794549511    4.48758153479967    9.52939677791530
H         0.42535391493742    9.39620809545165    7.62800670523714
H         1.77414301167687    7.78478360134570   11.28175051231722
H        -4.28330214304494    4.00638734467719    8.19800471161001
H         0.95867011897383    3.35232114579588    5.98414650538445
H         1.92525165514465    8.96536849024262    6.80475458913432

