90
CSD_code = MUVDIQ | q = 0 | S = 0 | Stoichiometry = C45H37I2MoO2P3 | MND = 7
Mo        4.47658396980296    9.77139229819126    3.40438305673889
I         6.61185157801665    9.22850204190605    1.57478167552539
I         3.90292474743021   12.26711938879068    2.17063179081819
C         4.88767657418519    9.00734528534873    5.12931062818546
O         5.00572094798333    8.56770614396618    6.19711730666845
C         2.95673853989921   10.13518016873122    4.52189750517385
O         2.08185248984830   10.30292309856797    5.25304274915470
P         4.43465085324071    7.35730704429195    3.24494687382062
C         3.64817595835216    7.22101539449136    1.58263946679571
H         2.95923931020300    6.38590549723602    1.42788584747355
H         4.41037043129746    7.22965788003255    0.79288491991968
P         6.10846402214445   11.06064209205523    4.70594915817944
C         5.84923283969966    6.22015963653814    3.34433599002671
C         6.53579082444862    5.73356795555209    2.23786680957579
H         6.23296848501138    6.00289969934996    1.23642455682629
C         7.62964902965383    4.90613218205172    2.41973936599149
H         8.16192332070578    4.53280439385903    1.55806546910112
C         8.04627522134016    4.56737911285174    3.69611999996208
H         8.90564281158463    3.92751538892432    3.83076363745788
C         7.36244419586608    5.04898953961767    4.80163588247198
H         7.68284591861902    4.78568471635125    5.79902054380083
C         6.26549867008771    5.87084100828905    4.62936006653406
H         5.72440400269678    6.24652053818275    5.48987521914790
C         3.25106101755036    6.37399675104800    4.22465429874630
C         3.14061381663671    5.02348820056127    3.88959480929441
H         3.78012834583755    4.61023497381835    3.11776385784951
C         2.22629050050773    4.21772783255508    4.53725388620370
H         2.14547733208189    3.17390096809800    4.27098105912256
C         1.41391336918938    4.75044794270753    5.52744793640160
H         0.69748352903507    4.12026112881406    6.03297432224933
C         1.52436358340141    6.08657263286247    5.86785580034163
H         0.89572930973882    6.50592309814407    6.63887355180520
C         2.43939798305063    6.89929055777007    5.21915723399148
H         2.51048856286088    7.93947106876085    5.49561435547904
C         2.66274138060180    9.34858750945222   -0.06734257370887
C         3.61325620488967   10.05752238855894   -0.79344884758258
H         4.51406957770920   10.42324866800059   -0.32223759197032
C         3.40214631806483   10.31264707294364   -2.13671665877832
H         4.14016907896926   10.86940547621764   -2.69332632770523
C         2.25060069251412    9.86171666537042   -2.75820823042471
H         2.08492901175800   10.06710493472957   -3.80533164048227
C         1.30534696116254    9.14838278510164   -2.03723230779610
H         0.40605832087918    8.79563151381779   -2.52097121164683
C         1.50628274454986    8.88952678981438   -0.69546464283441
H         0.76476458872502    8.34043598294303   -0.13006483741636
C         1.25400102764214    8.75970068864287    2.30495037701594
C         0.63352687154535    7.57236715263638    2.67346257037388
H         1.12343098252461    6.61846442884342    2.53848689633882
C        -0.63718693457962    7.60261338534084    3.22182893067648
H        -1.11028465451786    6.67575825785711    3.51302485738328
C        -1.29566890368795    8.80687360769780    3.39878617205354
H        -2.28402948908435    8.82155488979823    3.83348623870486
C        -0.68790877073796    9.99285857857867    3.01557740391715
H        -1.20034341302153   10.93395770464373    3.14657779990659
C         0.58095788705438    9.97097534880572    2.47323543164422
H         1.06372686291019   10.89370637126040    2.17235692541097
P         2.94441136412096    8.93256331932641    1.68215871896589
C         6.82087189800102   12.60581838851459    4.03821175406630
C         7.81400539803504   12.47496170471476    3.06982501954215
H         8.14868237979860   11.49415237774598    2.76204768001445
C         8.37617813631976   13.59894340937992    2.49672546698593
H         9.13643853259867   13.48482034556022    1.73883297842989
C         7.96088434054554   14.86048621809702    2.88917163935828
H         8.39531826126324   15.73925436072526    2.43658108369836
C         6.98721367716124   14.99313960298920    3.86387453237088
H         6.66312560583553   15.97430544299599    4.17787750594562
C         6.41336474718861   13.87328428188044    4.43855186219322
H         5.65376665856410   13.99603088796333    5.19634971027182
C         7.65970619474476   10.25997088026254    5.22034527924675
C         8.61574516322406   11.04699523654098    5.86506695846467
H         8.41099781597943   12.09498800445119    6.04429191856294
C         9.81189645632705   10.49157820426338    6.27245936057706
H        10.54542336583895   11.10618502494209    6.77338950210354
C        10.07322580889862    9.15003912151907    6.03513572030954
H        11.01277176363869    8.71973505957511    6.34854463684902
C         9.13117712029268    8.36619123021248    5.39392951030328
H         9.32741490697421    7.32196275398004    5.19862662863570
C         7.92807750464842    8.91866237358566    4.99033829000038
H         7.20570929699177    8.28841634703657    4.48844169740272
C         5.37451020453402   11.59371416618527    6.28209335431973
C         4.20758115138652   12.35623164666162    6.21774663606352
H         3.80084584835115   12.64659611339120    5.25599764950962
C         3.55967584222493   12.73955505220382    7.37617608331105
H         2.65977619584464   13.33344966917961    7.31474006224139
C         5.20386332662147   11.57723889577074    8.67840822251965
H         5.58695624098411   11.26018605686749    9.63753374435176
C         4.05773911224371   12.35015858021974    8.60942201734803
H         3.54672043464355   12.64165232059984    9.51511879357429
C         5.86351695318223   11.19803353532883    7.52216828247301
H         6.75144985517609   10.58445352595756    7.58773933613307

