47
CSD_code = MUVDAJ | q = 0 | S = 0 | Stoichiometry = C25H15O5PW | MND = 6
W        -0.50348155013135   -5.97217104345225   16.46274009821500
C        -1.36434177260517   -4.76176877328318   19.45173959162759
C        -1.06209065357193   -5.16131966792859   18.33225944036302
C        -0.21965857643304   -4.13808062786375   15.72370909613315
O        -0.05360667315546   -3.09215643998422   15.28760569423358
C        -2.40791849525030   -5.91917793823720   15.86268710001753
O        -3.49677054556407   -5.89580389385271   15.50766411310354
C        -0.80291200038859   -7.78440339656683   17.24326240332905
O        -0.98469864271185   -8.81441792657013   17.71275892638535
C         1.38962520647066   -6.01025734205001   17.09505765365191
O         2.47302802721973   -6.03087548438584   17.46833858588920
C         0.03421976214836   -6.76839175295925   14.71708066518230
O         0.34422275803551   -7.22755714939512   13.71455766846152
P        -1.76361914550531   -4.27937040313572   21.04114252024642
C        -3.31205632372579   -3.33967642628402   21.08560661206700
C        -3.62020674190841   -2.55897218568012   19.97609666995546
H        -2.94788195711211   -2.55504158862512   19.12859031647973
C        -4.78533135955344   -1.81489700312011   19.96687912272375
H        -5.02998182157004   -1.20924728380298   19.10760683753031
C        -5.63969471938109   -1.85258446697738   21.05808146909758
H        -6.55035520623223   -1.27278748543880   21.04875285938160
C        -5.33548255574460   -2.63861438777029   22.15844130296370
H        -6.00814140489891   -2.67136835617740   23.00267414481683
C        -4.17223036816494   -3.38727048526707   22.17710543505842
H        -3.93512072591359   -4.01098650173160   23.02849863203742
C        -1.94756592443081   -5.72661230733085   22.11511693673355
C        -2.29351988354605   -6.93665921940071   21.52328959352772
H        -2.42492263520028   -6.98338950044673   20.45050778978703
C        -2.44575562377361   -8.06266135735054   22.31125283486298
H        -2.71035131531614   -9.00461521322808   21.85573666377177
C        -2.25149585437712   -7.98092110407380   23.68131625752021
H        -2.36831596828404   -8.86146848417006   24.29496876132461
C        -1.89739911922675   -6.77573653261066   24.26792129712507
H        -1.73792797157693   -6.71916342696158   25.33455198664372
C        -1.74075516419181   -5.64409154645758   23.48822002484055
H        -1.44985430880943   -4.70362742299965   23.93751234104743
C        -0.46558993363310   -3.23730392842879   21.75671528506160
C        -0.75185021186591   -2.22013307294988   22.66030422573880
H        -1.77650394891796   -2.01714595069796   22.94240083363260
C         0.28318773852763   -1.46662073383208   23.18472817698832
H         0.06811297400444   -0.67425409684718   23.88626256823884
C         1.59179926805985   -1.72423240202251   22.80760924547094
H         2.39471871450884   -1.13100789003997   23.21867464391024
C         1.87336214089717   -2.73315360936443   21.89924965445768
H         2.89266350617801   -2.92535028487861   21.60088777665726
C         0.84628254517888   -3.49192549910561   21.36982329264572
H         1.04326646144067   -4.27372840623491   20.64841285106097

