55
CSD_code = MUVJES | q = 1 | S = 0 | Stoichiometry = C15H33AgN3S3(1+) | MND = 6
Ag        9.16276862228973   13.42502694952898    9.92079429565212
S         9.76659224689504   15.95918473913786    9.13715810862146
S         7.73189711315704   13.58143970032205   12.23025305880562
S        11.51491748150847   12.17080636735831   10.47082265832423
N         9.13890508484362   13.25159554403396    7.38771638474008
N         6.76524928410539   13.22955343957513    9.11376882076946
N         8.69509326550466   11.02440516369981    9.24294643224710
C         9.69168257765454   11.92013235357885    7.12699335612081
H        10.72001018824847   11.92706345305110    7.49236478741794
H         9.71723689320314   11.70799914960986    6.04646560070616
C         8.93207378387219   10.77836533720921    7.81748144352793
H         7.97785823306409   10.61674580408805    7.31673030774987
H         9.51567489680143    9.86161115740418    7.67347394116978
C         7.29028970556130   10.83124190263626    9.61075403025857
H         7.22944993654476   10.93558097555636   10.69540032802820
H         6.94920833606044    9.81741014409102    9.34803852807344
C         6.32789902628721   11.83838862225798    8.96475325286621
H         6.21244264585050   11.60885961224356    7.90577929519295
H         5.34271926306694   11.69022668203925    9.42211234617021
C         6.77394906632524   13.94686592374743    7.83639283738797
H         7.01345681849337   14.98799543017326    8.05954534629073
H         5.77977525683720   13.92171254059114    7.36285869122144
C         7.79615346591950   13.41353162530983    6.82228678470137
H         7.45511485444254   12.45767757276683    6.42541875401200
H         7.81291361038555   14.11089026103912    5.97660443389268
C        10.06985913969506   14.26603733936004    6.89688586086246
H        10.10773388024054   14.26243916394946    5.79424322180056
H        11.06826577285757   14.01167503981044    7.26253126536285
C         9.73910970902095   15.68529978624206    7.33553871356875
H         8.74351928619032   15.98537411450388    7.01519126042757
H        10.46248242212326   16.37851976039791    6.90561547970936
C        11.55472493112680   16.02533212542382    9.44202940801746
H        11.68277812395590   16.27545988615485   10.49028755461087
H        11.98229939472020   16.81080829433156    8.82502650959362
H        12.01804841402551   15.06626818693081    9.23127298897785
C         5.94630196099039   13.96458823711581   10.07591814442419
H         4.87972003179463   13.92070433779211    9.79704721309928
H         6.25258015952194   15.01369491043920   10.04673473603999
C         6.06243994118434   13.46419884029671   11.50850893938745
H         5.78642348686740   12.41515687922785   11.59337493107209
H         5.40404714383743   14.04638813953471   12.15364627256154
C         7.81561929076998   15.35641477519323   12.60085156305420
H         8.75337202175446   15.52190081018279   13.12145329460582
H         6.98603854981778   15.61326036098304   13.25381794809245
H         7.79083975708968   15.94307696138819   11.68757863832653
C         9.53833483440931   10.18779696584375   10.09484011704021
H         9.39667998011661    9.11947072585997    9.85828429301003
H         9.22649996680576   10.34113047006683   11.13146043186380
C        11.02752507137184   10.48278342905470    9.98648401569410
H        11.38997816848460   10.36109879797076    8.96778211765266
H        11.58271674468480    9.80247330196320   10.63266212301038
C        11.45027199362094   12.03687928771467   12.27991207157963
H        11.81129952377966   12.98106444638373   12.67496539486844
H        12.11301414480917   11.23427645023874   12.59158502718065
H        10.43394449741121   11.85851772459637   12.61765664055629

