68
CSD_code = MUVLEU | q = 0 | S = 0 | Stoichiometry = C29H34Br2NNiP | MND = 4
Br        4.72280120964463   14.75822095718004   13.91320700027672
Br        4.33647136414128   16.63899699617944   11.30059404839072
Ni        3.22539293983317   14.95569090406036   12.26943391493433
P         1.47817529453827   15.47947853733618   11.08295336744799
N         2.25098269033292   13.20063602348614   12.65240681919507
C         1.05735084404623   13.08615980053140   12.23236028253229
C         0.24924392937273   14.26751084966446   11.80036326526297
H        -0.12897365306877   14.73911799671779   12.71889999324998
C        -0.90861138671602   13.66833424763144   11.00389816044609
H        -0.60656397651717   13.49687657506649    9.96788170777756
H        -1.79305442691402   14.30381862201743   11.00509265505888
C        -1.14495778647995   12.32599267276091   11.70516764505870
H        -1.71167326616671   12.48306217337226   12.62546726404706
H        -1.69670060841926   11.62481222711291   11.08129627729601
C         0.26416084931041   11.82931946279007   12.04012011662318
H         0.30901148507222   11.17366756824721   12.91027027195233
H         0.69438617633800   11.27795929665461   11.19822086725383
C         0.67963758193738   17.10772891805950   11.14408648887388
C        -0.33252659067255   17.44048924364401   12.03742879616041
H        -0.73018308839855   16.70875289155200   12.72703001960585
C        -0.84491836678065   18.72555210921237   12.05543367507850
H        -1.63580306225708   18.97442317532384   12.74787664863986
C        -0.34140870089702   19.68982501700438   11.19911781372676
H        -0.74112225409422   20.69240960505056   11.22252630319043
C         0.68306913063635   19.36928759387764   10.32246890337930
H         1.08970067027469   20.12128881704731    9.66374042718551
C         1.19482694303614   18.08704801362750   10.29419273314403
H         2.00692508920742   17.83967811658012    9.62429318762997
C         1.43746502224761   15.14642129282674    9.29597599010595
C         2.55088057534868   14.58716923413669    8.68211952586791
H         3.44158689676851   14.39571254387295    9.26490354274397
C         2.52990390130126   14.30911896962260    7.32670499963803
H         3.39953060044260   13.87997899371975    6.85212150446926
C         1.39823537022161   14.59256897976583    6.58174201134623
H         1.37999796790695   14.37849521128415    5.52357427498932
C         0.29042528664587   15.16598668596560    7.18848674275194
H        -0.58673849195144   15.39915411813593    6.60291579056275
C         0.30612466998517   15.44724297628830    8.54097201416318
H        -0.54987578094561   15.91108441984308    9.01209144484671
C         2.92667674661240   12.05143013308509   13.14173982124895
C         3.64456634710617   11.23749483494674   12.25849398972087
C         4.28775619475673   10.12330659466194   12.77490456492775
H         4.86120058916671    9.48600632915453   12.12176597790548
C         4.20371074285293    9.81446135727693   14.11942229191682
H         4.70174417899235    8.93566119703418   14.50054687346428
C         3.50086920384837   10.63611764532976   14.97765608945795
H         3.45478569897609   10.39341616518414   16.02705588770382
C         2.86198865206673   11.77565987599410   14.51152102194717
C         3.78212340933206   11.61921414207815   10.80063592899980
H         2.87809211011868   12.15704896720008   10.48361016472894
C         3.94420507075853   10.41820068885668    9.87021991370043
H         4.92834238252241    9.97026513554667    9.97704249518141
H         3.83512369614580   10.74013282003261    8.83617192763437
H         3.19013496915033    9.66064741265034   10.07672882928302
C         4.97756328666176   12.56870424532598   10.66386118910560
H         4.78437596708225   13.50875101467403   11.20216175998642
H         5.17180158791908   12.80192101492802    9.61899339750890
H         5.86963955358432   12.12097592559955   11.09491256725306
C         2.12361906082284   12.68808957779099   15.46537425860089
H         1.92491601145573   13.63834192013754   14.95729871513334
C         2.96505415790330   13.00471480029282   16.70261383217420
H         3.08289632231580   12.13016457067548   17.33650823731820
H         2.47834396981085   13.78265151096718   17.28660397622928
H         3.94689440635102   13.36203559382382   16.40412143074446
C         0.78513623472905   12.07084109670300   15.88189959431972
H         0.11918926419117   11.94525302991680   15.02959010395144
H         0.28993402606697   12.71209798595806   16.60811008104132
H         0.94384111038129   11.09552257691441   16.33709858390147

