67
CSD_code = MUVNOI | q = 0 | S = 0 | Stoichiometry = C33H25AsO5S2W | MND = 6
As        0.36518092659042    6.17139531608405   10.76268972087793
W         2.20563613081926    4.46411307942531   10.45502753347855
S         1.96197817090796    3.57426621120654   15.12468559290722
S         5.25641595003257    4.20470376294431   17.94481535445713
O         2.96509366776666    5.45025342366356    7.57771619004354
O         3.92573260979084    6.85704674097680   11.52051468354714
O         4.65902954507838    2.54515059246425   10.27186340976728
O         0.79099447188209    2.24430879886991    8.77464121834673
O         0.58314990394239    3.17133532031219   12.82699481643089
C         2.65750397660243    5.14425623046161    8.63926017896065
C         3.29666342320912    5.94572159526448   11.22393704128904
C         3.75313096341149    3.24405822845171   10.34116997313546
C         1.21648392638324    3.04435021729866    9.48038484598304
C         1.71642788599116    3.71869917617046   12.38906646960857
C         2.59363948703025    3.84373208078715   13.50756400746446
C         3.94289035983517    4.14125734357122   13.56450502033629
H         4.54280173299635    4.30550149856496   12.68686129948321
C         4.45398785439814    4.17520406535572   14.85784778764421
H         5.48065708381073    4.39227240243560   15.09594592358179
C         3.50884956568089    3.90570379037853   15.82893679027700
C        -0.49694125262994    2.89477201448015   11.95993014907923
H        -0.22398941192323    2.05869664056606   11.30392895952075
H        -0.72329695677558    3.77807289555348   11.33612481397119
C        -1.69819115717102    2.52542113348380   12.81522640143096
H        -2.54991748110710    2.30488847160771   12.17864365552434
H        -1.46939152466617    1.65241533543860   13.42088172167681
H        -1.94831740791040    3.35108944625928   13.47692936799238
C         3.69561089473369    3.88172113213447   17.24016183164316
C         2.76510025320202    3.62468270168695   18.21723833685115
H         1.73768794312082    3.40021687648361   17.99242002485203
C         3.29804191524262    3.68529542369067   19.51588379582661
H         2.72206879888905    3.51172712016118   20.40704256790499
C         4.62456456471167    3.98687405761906   19.52562902965677
H         5.27641276645245    4.09529021220103   20.36944910870618
C         0.92871827797844    7.99983220254946   10.44503976547459
C         1.34652204216208    8.28795199272054    9.14959566934818
H         1.31704131303969    7.49942682866239    8.40068820358463
C         1.79051296520208    9.55347352824594    8.81696646815556
H         2.11486381727323    9.76608693338703    7.80858994378069
C         1.82445533111162   10.54667921036573    9.78332605678999
H         2.17850887730121   11.53513555725559    9.53010010784329
C         1.40512014524769   10.27061813396300   11.07276183369799
H         1.42875932925050   11.04464080449996   11.82684026885102
C         0.95564900468852    9.00240933822043   11.40372853950226
H         0.62673798554753    8.79442494108589   12.41695496108101
C        -1.26445934924370    6.25011682214813    9.70087499489233
C        -1.53822931222009    5.25461586660961    8.77249164149332
H        -0.84704622946640    4.42229480568695    8.67312683705423
C        -2.66870868191728    5.33151987256423    7.97512360344144
H        -2.87483119967764    4.55453026937881    7.25347499497560
C        -3.52904325604970    6.40884103899762    8.10055015014708
H        -4.40942126392888    6.47231834000743    7.47819014655000
C        -3.25821105202387    7.41224559332401    9.01856427166376
H        -3.92668856489621    8.25649838404904    9.10919155199436
C        -2.12930244835608    7.33527504524216    9.81318965743972
H        -1.90470092253597    8.12177971531773   10.52890995994937
C        -0.32625587988801    6.30186232755730   12.57180575608069
C         0.60315959354713    6.49628815628450   13.59033331986276
H         1.65247686414888    6.62159452408346   13.33166214221052
C         0.20636936818986    6.51860022134115   14.91438012436397
H         0.93662635355522    6.67164883269780   15.69613933610476
C        -1.12875699735786    6.33387792339029   15.23664074050895
H        -1.44117829865889    6.34404165507372   16.27028974297318
C        -2.05956744011501    6.12866490592818   14.23291118649299
H        -3.10033458498322    5.97780420265139   14.48338494944015
C        -1.66108415009844    6.10969282435031   12.90568707876440
H        -2.39229121707483    5.93661586662182   12.12086837303118

