73
CSD_code = MUVPIE | q = 0 | S = 0 | Stoichiometry = C24H40BFN6Zn | MND = 4
Zn        3.85584053731918    4.24403403094561    4.85665808980779
F         5.49496192459995    4.72473786504429    4.66763164376068
B         1.15794233517785    3.45698276927812    5.16601015249959
H         0.03351485465770    3.12881885892949    5.29519044976086
N         1.37792904701524    4.85279384188642    5.76857699626834
N         2.59076667378759    5.43395496144912    5.75869140949654
N         2.08796393590097    2.46234462385579    5.87705828633932
N         3.42374591460465    2.61736740781374    5.85511334395957
N         1.53224195864803    3.50101079814630    3.67676777458235
N         2.76381595558461    3.86500220599634    3.27740670376804
C        -0.94880043418506    5.34731977183668    6.54683666582664
H        -1.43309504733498    5.18536812898195    5.58551444667495
H        -1.44092499479123    6.17305331852215    7.05363005469941
H        -1.07122070512463    4.44490281570747    7.14302858308374
C         0.49122495777028    5.66680911240163    6.36323271457708
C         1.16596022027200    6.81147165634510    6.74874525098485
H         0.74332095470038    7.65721929887552    7.24974327903139
C         2.49027591957932    6.62400427958904    6.34875475182894
C         3.66536131467761    7.54607351959170    6.51371992377917
C         3.24006697230983    8.82061367413035    7.24767079329262
H         2.85046443795626    8.58656467840260    8.23584809535683
H         2.47683268312531    9.35458193837057    6.68607724075313
H         4.09819051843320    9.47811726965551    7.36644843767436
C         4.75344484599393    6.82988866721742    7.32127342538661
H         4.36684875869797    6.50828856947260    8.28643593894735
H         5.59481275204504    7.49804211999873    7.48784928030918
H         5.10940709515440    5.95987453124631    6.77765763115024
C         4.21243617971785    7.91117570808032    5.12927576425716
H         4.58358955756322    7.02180910678121    4.62888186379676
H         5.03319236999567    8.61748275030563    5.22718951900756
H         3.43518507939533    8.36235537749975    4.51550140799240
C         0.38347572645918    0.88310787291024    6.80709456314188
H        -0.11611406912059    0.67553257113632    5.86259108459041
H        -0.19817878609218    1.63386618276190    7.33902517825906
H         0.40777278242554   -0.02748313004599    7.39959529850261
C         1.77207905074672    1.36013322451474    6.57553610577741
C         2.95332413640955    0.78971992385459    7.01536415081466
H         3.04690801127332   -0.10142592994840    7.60019056237306
C         3.97351609141952    1.61471662875971    6.53842321282882
C         5.45954507775038    1.47497207340207    6.71291906000350
C         6.11706454501678    1.37192038942860    5.33232645856443
H         5.70523041843277    0.53475742754040    4.77201092727975
H         7.18905982632508    1.22574892080448    5.43981034625079
H         5.95051903008765    2.28642383753090    4.77093057062244
C         5.99576278508560    2.71060627739678    7.44412040148703
H         5.49483577057911    2.83816312487198    8.40181018288184
H         5.83424687032576    3.59950485002297    6.84173285948238
H         7.06340930731494    2.60520725580154    7.62057583847006
C         5.78195080111701    0.21925188829445    7.52728920152512
H         5.33374737560723    0.27369922860953    8.51678217520838
H         6.85906148088629    0.12647547511299    7.64578421764377
H         5.41620661241219   -0.67299965832496    7.02407036611752
C        -0.64487946014295    2.78196819540339    2.67332298559523
H        -0.73499072232410    1.85452737762119    3.23597809719279
H        -1.02260764208540    2.62093772354339    1.66725067883173
H        -1.25870290291074    3.53540679965113    3.16357670254961
C         0.77377334098842    3.22039521212734    2.60512769269163
C         1.55262919388941    3.41388198714394    1.47813135449667
H         1.24338104663112    3.27505061564289    0.46323821033266
C         2.80306026701939    3.82116514812252    1.94659349933269
C         4.03574328181157    4.17320719310494    1.16251219069563
C         4.43306673690836    5.61896427999452    1.48044855387202
H         3.61486808546710    6.30058670984176    1.25600270370636
H         5.29866142312807    5.90660229268317    0.88875884426718
H         4.68995234242918    5.71224851016814    2.53146299046247
C         5.17332293109403    3.22911918282358    1.56688282679328
H         5.42002030473847    3.36994983994343    2.61484889649619
H         6.06048375957344    3.43942836445695    0.97458027948417
H         4.88625171307207    2.19135485964433    1.40883067989004
C         3.76677374758310    4.03516992839402   -0.33834069038552
H         2.96704228084284    4.70256235714041   -0.65152223804519
H         3.49106688850542    3.01351330454670   -0.58982116654240
H         4.66406396607141    4.29309802720935   -0.89616577219648

