53
CSD_code = MUVQID | q = 1 | S = 0 | Stoichiometry = C24H21ClN5OsS(1+) | MND = 6
Os        3.66964205971464    4.22366746834292    1.45294272942262
Cl        5.04627367046489    5.81744154747162    2.45821654781744
S         2.33054303606238    1.64287847948051    0.08531995763947
N         2.24952352288937    5.60149509049839    1.55979965416118
C         1.69580393404211    6.58889171620576    1.77328895225796
C         1.00857317640020    7.81107515184398    2.03509673131464
N         2.41654922826026    3.06708997832781    0.63558275214079
C         0.64614163172431    1.50022932095425   -0.53050045929588
C         0.24180626668452    0.30081354359169   -1.09700932739532
C        -1.04882119950565    0.18203541420574   -1.57791033284800
C        -1.94021259134482    1.24761125136439   -1.50011104398346
C        -1.50989967276695    2.44362341844859   -0.92580844632398
C        -0.22495961532809    2.57473659576102   -0.44206298326730
C        -3.33861470919742    1.12319683032483   -2.01161924884935
N         3.41807412470440    3.36469797623450    3.31171857506972
N         5.13504019435284    3.04303167995682    1.43596210557963
N         4.50106958318143    4.75942957572618   -0.36311376600462
C         2.49982192887413    3.62129866957216    4.23865331961414
C         2.49485780071987    3.01500709051833    5.48063145505122
C         3.49061814768757    2.09166197870085    5.77607142014353
C         4.44736634081880    1.81666129603286    4.81896679376402
C         4.39992811744181    2.46964679756762    3.58693636041567
C         5.38831275524520    2.28941703126796    2.52764413349980
C         6.52480475383209    1.49043673385241    2.58687558941700
C         7.40804907640470    1.49314555802171    1.51754129830168
C         7.16412376004438    2.31530055214021    0.42685348687592
C         6.01408054359147    3.09598880773698    0.41205215576634
C         5.63970652210861    4.06639969551548   -0.61369210688415
C         6.38872700974729    4.31470658971423   -1.76412082087040
C         5.97214624816738    5.28430866895987   -2.65524618743591
C         4.80550044474041    5.98770450227029   -2.38188777033927
C         4.10627932103057    5.68893218480815   -1.22738848441250
H         1.71311970389031    8.52694335353915    2.46016702727161
H         0.59818051146313    8.21822452923881    1.11105116371766
H         0.19818584826135    7.64347577111071    2.74452094275895
H         0.93183712194888   -0.52720195173860   -1.15846394542894
H        -1.36823876675749   -0.74998039142507   -2.01913441260831
H        -2.19469434296509    3.27649705424486   -0.86268277990436
H         0.12661690390842    3.49438143612442    0.00448300192374
H        -3.48439121437888    0.18095023779611   -2.53199996406980
H        -4.04566280077133    1.17390321078923   -1.18412148634398
H        -3.56994589650714    1.94081884060093   -2.69202095090253
H         1.74086235521956    4.34397766944432    3.96786670615347
H         1.73209446092584    3.26148822782539    6.20063327835313
H         3.51916557949455    1.60055202995591    6.73589435735232
H         5.23262453873314    1.10778869666382    5.02268576958301
H         6.72855442251956    0.88642973968849    3.45499528607717
H         8.29348181500315    0.87916254723797    1.54516375429549
H         7.86721029098730    2.35438323777363   -0.38806883488164
H         7.29121456359221    3.75663166238663   -1.95039275355168
H         6.54533775577418    5.49258277833614   -3.54488697385048
H         4.44759418968249    6.75446696027338   -3.04890840209114
H         3.19209754912067    6.21186316473389   -0.97766382416612

