75
CSD_code = MUVRAY | q = 0 | S = 0 | Stoichiometry = C36H32Cl2N4Zr | MND = 6
C         4.20892533349476    6.67657081606625   16.30371839781026
C         4.07916426515096    5.28563712955701   16.28602354668182
H         3.10811524099726    4.84361364644544   16.11837409456492
C         5.18020427472094    4.46686187342688   16.44638068134137
H         5.05732544242706    3.39491789988486   16.42841407893886
C         6.43254295800620    5.02313590932468   16.65210669326672
H         7.28723534484530    4.38905108875090   16.83059503220299
C         6.59349921364690    6.39431215936727   16.60338355050107
H         7.57120186056384    6.82317144434469   16.76732849982449
C         5.50317730717608    7.23743581445925   16.37741492493685
C         6.69735437151959    9.04697520254732   15.59502250783418
H         7.42577618593090    8.31062549875195   15.23885859719382
C         7.04891774867261   10.39060115157877   15.34160817231283
C         8.32854269373686   10.60938298014553   14.78096037455903
H         8.92055980331781    9.74335060090595   14.52047985758679
C         8.83588345006721   11.86205613726449   14.58664437614286
H         9.81675385903741   12.00435111814142   14.16162119798146
C         8.06531336445851   12.96577135226276   14.97342910014010
H         8.46649843004528   13.96266072367712   14.86142504879782
C         6.81078299573749   12.79998035222187   15.48710572852818
H         6.24464717444059   13.67107330852945   15.77987762993962
C         6.21624490894750   11.51554130008578   15.65284150876409
C         2.01424546214458    7.15719074334520   16.82544491158405
H         2.00281652968230    6.18087669361470   17.32125100811463
C         0.78495127286409    7.84922923086434   16.87332140180965
C        -0.30628283568328    7.13796377039283   17.42543783784729
H        -0.11658333703500    6.14939102313938   17.81934817276375
C        -1.57320767293075    7.64549387917964   17.45207600002274
H        -2.38981188201282    7.08025239537239   17.87232837505563
C        -1.79843610266793    8.91427743365158   16.90331033895928
H        -2.79988889601341    9.31946267873630   16.88721980457446
C        -0.76752209449566    9.64964664091973   16.39279492946445
H        -0.97658449971703   10.62432342743633   15.97880255276887
C         0.57956800723962    9.18185006204971   16.38410127958248
C         4.24208183999832   12.58806995967077   16.29985777591278
C         4.19789836994194   13.15754456921669   17.58073774458865
C         3.60169651036319   14.40330904506765   17.73725191700140
H         3.57055950124981   14.84776943694565   18.72168733286196
C         3.10152483598210   15.09522934389129   16.65086279476317
H         2.67202901149086   16.07655267958612   16.78531325037178
C         3.17867637179375   14.54210877567848   15.38407390841582
H         2.81889338898756   15.09630251310460   14.53025278181621
C         3.73941933334308   13.28957757875306   15.18910633363008
C         4.84093732000843   12.47524663222148   18.75065302344081
H         5.62868873301325   11.79677622239603   18.42188609158888
H         4.11210959628763   11.88481095149476   19.30606711526593
H         5.26621487870592   13.21299682130978   19.42834882671425
C         3.90519096756341   12.73287229416790   13.80563295434590
H         3.17182705666136   13.16891433705912   13.13194240522977
H         3.80338271499926   11.64411507793436   13.79481255494088
H         4.90099339002820   12.97394204549091   13.42691284789585
C         1.21565147792508   11.28162094526796   15.58816935026818
C         0.88639268789876   11.57864695541991   14.25678348615402
C         0.42086200571536   12.85057803591996   13.95063166113350
H         0.16441593112341   13.08351413691123   12.92708329315143
C         0.23371625852745   13.79733867060882   14.94072091214862
H        -0.15817002366540   14.77164936167152   14.69031958322031
C         0.51646470674176   13.48338731674873   16.25814295030136
H         0.33247996764438   14.20764006203900   17.03741564482539
C         1.01058326035178   12.23363769518388   16.60110359625707
C         1.21534114491450   11.86465581297792   18.04048759695450
H         2.05014989822860   11.16936199851503   18.16108411346371
H         0.31903670627841   11.37260257831958   18.42499517621340
H         1.39532087111316   12.75516682579578   18.63791317005766
C         0.93550391408259   10.50559109747163   13.21244221350935
H         0.72643911637546   10.91859759538620   12.22898050616302
H         0.18686551554891    9.74273945778955   13.43393768923813
H         1.90737402406072   10.01246820720622   13.19096211629412
Cl        3.72548072759471    9.37090363958209   18.49374279524227
Cl        4.05302294300297    9.12640251109371   13.78163998716840
N         3.11755470551599    7.54723671997353   16.25441573111721
N         5.63178682117119    8.61791913622380   16.20765523689209
N         4.95124952600239   11.37000050440004   16.08641353102102
N         1.59092841573248    9.95242045533136   15.94639772676828
Zr        3.68759539928120    9.67994650969240   16.10561206129372

