58
CSD_code = MUVSOL | q = 0 | S = 0 | Stoichiometry = C24H26AuO4PS2 | MND = 2
Au        1.31113334347769    3.43621139501480    4.78095800057107
S         0.38850322860304    1.46193183732944    3.84777566875721
S        -0.34982404704152    3.89497677664001    2.33130538819541
P         2.25056482405385    5.26138103223040    5.73792617211194
O        -1.07106533165991    1.43508010085582    1.77386340157488
O         3.46075555276286    9.72973542332611    2.00978838847263
O         7.53985062655188    3.97724184043820    8.12712820673150
O        -1.17780569903809    7.39443600142442   10.09666052046239
C        -0.40568937011393    2.25388766585269    2.56612765622222
C        -1.77203855472625    1.98388570581413    0.66582937898358
H        -1.06198889217988    2.52004094564719    0.02330791988595
H        -2.50852462673787    2.71031140264830    1.03226874425945
C        -2.44146894018997    0.84445626269419   -0.07880594257122
H        -2.98573300575644    1.23665982481783   -0.93304364063406
H        -3.13260474391396    0.32522389999146    0.57958461749798
H        -1.69343786922287    0.13600154489102   -0.42418625818622
C         2.63408372599035    6.61698993283263    4.60514354074007
C         3.63247473610036    7.55254087962983    4.87918892366346
H         4.21340118689670    7.46971067187051    5.78725036620358
C         3.87717604822886    8.57457932603323    3.99213830930154
H         4.64517533391190    9.30790952789401    4.18271836911003
C         3.13455197377733    8.68654021297871    2.81070502652668
C         2.14160894395289    7.74886731632525    2.53726403770435
H         1.55490994558950    7.80154017632370    1.63433680647597
C         1.89973040547195    6.72139227905422    3.42961946629115
H         1.13482277830266    5.98963043701272    3.20842059283959
C         2.76667438556055    9.89370608892679    0.79425741062815
H         3.20177744093678   10.77427609744212    0.32459890969755
H         1.69868728583484   10.06283767514829    0.96237695756182
H         2.89975168239030    9.02916633507406    0.13715865534007
C         3.82954062140365    4.92289144256313    6.55546902152862
C         4.19553756070198    5.46517791121710    7.77995513059788
H         3.51411243405703    6.11928344454458    8.30619694390415
C         5.42660089510911    5.17156092589221    8.33881695853813
H         5.68267310007137    5.60509764349481    9.29288237206333
C         6.31322616985454    4.32881366378767    7.67301048139839
C         5.94134840220561    3.78076361694761    6.43990766689995
H         6.63752842138757    3.12514642667263    5.94148201503126
C         4.71422268500773    4.07070043229451    5.89336948009821
H         4.41890866976437    3.63825163552854    4.94606138456851
C         7.97359199959844    4.47307101192155    9.37202275270722
H         8.96746785575123    4.05566252263560    9.52384622503764
H         7.31659386205604    4.14731917429770   10.18441582404012
H         8.03729505653984    5.56574982527502    9.36914889755222
C         1.23958122392468    6.01544431358087    7.03381834793619
C         0.78707276084951    7.32614100475280    6.98813137383584
H         1.06908205714847    7.96530750206169    6.16331809599747
C        -0.02335581403020    7.82458976461004    7.99362529428402
H        -0.35852599616442    8.84813354340169    7.93359471568085
C        -0.39707237685192    7.00949033539741    9.05832982066181
C         0.04668658959061    5.68160496620336    9.09376385289710
H        -0.26248732250630    5.06213349704244    9.92074317447618
C         0.84537971600925    5.19014544258267    8.09015331172520
H         1.18032769043968    4.16092080178564    8.10835779485421
C        -1.68486755791775    8.70839190600780   10.11692139521578
H        -2.28215304420418    8.77811628352366   11.02442610682746
H        -2.32117243644996    8.90615878637957    9.24896155223131
H        -0.87969559118823    9.44888355941594   10.15620441501388

