33
CSD_code = MUWDOX | q = 0 | S = 0 | Stoichiometry = C10H16HgN2S4 | MND = 4
Hg       -1.50124702609400   -0.50168538676846    2.35478739823333
S         0.28824736749950    0.45198482231432    3.98162698734493
S         0.79029050278848   -1.64125638184124    1.89596911398625
N         2.57768819210433   -0.75735006566507    3.58921265597526
C         1.32667322023245   -0.65753994862293    3.19070434922125
C         3.13965114914123   -0.00728493237382    4.69569996964711
H         2.44860342798451   -0.01312745725316    5.54130907652162
H         3.29218557112281    1.03370609891117    4.38991951911437
C         4.46056283461467   -0.71446227967369    4.97798291728998
H         4.29677015954528   -1.55882399061298    5.64789176219849
H         5.19505896751550   -0.04987353314766    5.42593529108576
C         4.87679634271177   -1.21428158817553    3.59548547252682
H         5.31406190078958   -0.39902450074957    3.01861426941485
H         5.59091788346173   -2.03289200219537    3.64008758774088
C         3.55020845932933   -1.64202981173321    2.97637050248746
H         3.30004421823395   -2.68022740128734    3.22022272334190
H         3.52044998154593   -1.53556603268230    1.88968182617102
S        -3.29267710000698    0.45210818129057    0.72581575347710
C        -4.33078924292169   -0.65765950486949    1.51687884736029
S        -3.79424742941506   -1.64120650877017    2.81163476350843
N        -5.58182456736682   -0.75739554832266    1.11854650701552
C        -6.14379052275279   -0.00725676798130    0.01211814315048
H        -5.45271639649855   -0.01312834350614   -0.83347057643397
H        -6.29632209722339    1.03374009511300    0.31790320979223
C        -7.46466054586487   -0.71448197825739   -0.27019563781569
H        -7.30081862154015   -1.55885700867166   -0.94008224013289
H        -8.19914056533562   -0.04989489533012   -0.71819566007761
C        -7.88086780678641   -1.21425853729324    1.11232782285580
H        -8.31810356770401   -0.39897240511905    1.68918352471524
H        -8.59501948558246   -2.03283760160739    1.06772092214963
C        -6.55430184462526   -1.64205735608542    1.73144934836662
H        -6.30416138938239   -2.68023717171188    1.48751471301521
H        -6.52452196952834   -1.53567025732531    2.81814913675380

