78
CSD_code = MUWJOF | q = 0 | S = 0 | Stoichiometry = C40H32AuNOP2S | MND = 3
Au       -4.50308237296210   15.60742261353933   16.89363640682087
P        -4.92632834936069   17.41399776385714   18.76435581337725
P        -5.38516463295949   13.71456815490930   17.93324845773123
S        -3.61984508710046   16.82922537471046   15.03040916302375
C        -4.23592436520462   11.68664638704280   19.58598407376490
H        -4.29322723218076   10.99688923639648   18.75736892662065
C        -3.72929060997540   11.28637747138605   20.80918300525997
H        -3.38525993303976   10.27176911049373   20.93978350453611
C        -4.67489316195685   12.99311870357943   19.43572128919673
C        -3.67808606594634   12.16728193119654   21.87677002557849
H        -3.30749021146203   11.80731834840061   22.82264581204599
C        -4.09454477747737   13.48799499610603   21.75259133369916
C        -4.15790584083104   14.46002240694344   22.91976538538715
C        -4.10435387860010   15.88001525886639   22.38212477707914
C        -3.70036259194804   16.97610072263594   23.13798585618265
H        -3.37759802566735   16.83795530393934   24.15708932997511
C        -3.69889206922138   18.25702399438642   22.61203466037469
H        -3.37517090829256   19.08256961244712   23.22783171926840
C        -4.09678761053902   18.48950359702163   21.30729800842814
H        -4.07298853756288   19.48409866456375   20.88805351134106
C        -4.52992441166927   17.42161537965486   20.53823415909843
C        -4.52947549593566   16.13556115983323   21.08613785905680
C        -4.56430599089383   13.88699796922008   20.50562735648829
C        -5.52570097423026   14.26867803236974   23.60600057686657
H        -6.33622335935170   14.45925100960473   22.90406983085957
H        -5.62519479806630   14.95900311467659   24.44076539121265
H        -5.62194004615952   13.25027664874539   23.97663344410322
C        -3.03857947451789   14.19969866054488   23.93106193144505
H        -3.11433470195696   13.19576716132416   24.33809840393404
H        -3.11004056362773   14.88791595058685   24.76775869099660
H        -2.06501251662657   14.31784635472545   23.46077780035386
O        -4.95042202319018   15.16071097652612   20.22388378199877
C        -3.13579326012951   15.46328959702616   14.24039518046444
N        -2.79807429806351   14.50816556670566   13.69016191396012
C        -5.42227555087836   12.30451067611377   16.79171544723790
C        -6.30165612150652   11.24036303418231   16.98414470518725
H        -6.98359626338965   11.25061796899107   17.82444865404868
C        -6.30017137400658   10.18169740420816   16.09646514143743
H        -6.98314355186211    9.35755518985688   16.24421058529513
C        -5.42874741399791   10.17776121862492   15.01684925447612
H        -5.43643941638257    9.34892619481269   14.32451036645153
C        -4.55683054161712   11.23547565690385   14.82239533959511
H        -3.88272242394851   11.24711096284612   13.98011366982438
C        -4.55270790809863   12.29972100041395   15.70711917902707
H        -3.88007179843878   13.13125961143824   15.54229593623448
C        -7.14570292847024   13.87145496416285   18.34891093587770
C        -7.70037041870145   13.56401117863345   19.58433934717671
H        -7.07277901194297   13.21985930580530   20.39442933466637
C        -9.06647850894902   13.68208256471629   19.77075325489949
H        -9.49727874878538   13.43896547061806   20.73143683127894
C        -9.88112427239891   14.09572895952092   18.73115246534322
H       -10.94753308517278   14.17483400402667   18.88070306363252
C        -9.32914421221820   14.40879300445929   17.49888853302790
H        -9.96303093496027   14.73269669182234   16.68718992284511
C        -7.96569285291561   14.30574331109731   17.31045739938248
H        -7.51893611808986   14.55244329652778   16.35484094115513
C        -4.61796927374264   19.14743225124244   18.29842074451966
C        -3.46331002226312   19.40842584996062   17.56862333429904
H        -2.81111771682476   18.58977588377312   17.29621765017404
C        -3.16694879007005   20.70220388027783   17.17909043564036
H        -2.27457036168031   20.90035371695282   16.60446434642285
C        -4.02201432556433   21.73718662804299   17.51790214053423
H        -3.79512609449304   22.74772269613189   17.21105712016764
C        -5.17448612337466   21.47970942585502   18.24501684428551
H        -5.84076301005000   22.28953238377862   18.50617879291648
C        -5.47842239582678   20.18897343965320   18.63426567324890
H        -6.38081624971884   19.98449235994941   19.19503295514920
C        -6.74289583690012   17.39993507717157   18.75799580984941
C        -7.34096752755008   17.63864602442337   17.52212797350102
H        -6.71253505912388   17.80262571951089   16.65494569754680
C        -8.71613779951704   17.67770948929147   17.41192344957978
H        -9.17520287881837   17.87725024159555   16.45481446659646
C        -9.50481928993499   17.46210827549336   18.53135798790228
H       -10.58104036661983   17.49721938480116   18.44895844620742
C        -8.91383871047708   17.20106560648906   19.75543725595788
H        -9.52951707688207   17.02887023591762   20.62657358892675
C        -7.53559340897049   17.17020204170550   19.87425221519211
H        -7.07915604818580   16.98047048419317   20.83558538277705

