64
CSD_code = MUXDIU | q = 0 | S = 0 | Stoichiometry = C28H28Cl3N3ORu | MND = 9
Ru        3.77270768472909    8.30800899728619    2.64023825992371
Cl       10.87529609899407    6.14756950236690    7.20180225404583
Cl        8.15168019993861    3.87845612817617    6.46398291946549
Cl        5.94470355459848    9.17685920118334    2.69394173123606
O         4.75075295927281    6.48914257457311    2.52226442018415
N         6.98886576906239    8.59122060815044    9.27894117918756
N         5.65497283071473   10.18340654321043    5.63927572127908
N         3.89919363103637    8.22321198560531    4.66522397140680
C         9.48853340755543    7.17197433908329    7.09766619095777
C         9.10252974511269    7.65779894532838    5.84109876371039
C         8.01197779884425    8.47737310968397    5.73358760243846
C         7.25963239390621    8.84047641708814    6.86779566719872
C         7.65537031652586    8.32946578669689    8.13582238485066
C         8.78680770239767    7.49231530685844    8.22561123550713
C         5.93011986113580    9.35311765428023    9.20327263490326
C         5.42842228176065    9.89828895613174    8.02259599019395
C         6.08250922073524    9.65744387427228    6.82094096277958
C         4.29136793111304   10.53790323473974    5.36987103184501
C         3.33782361097681    9.30973058354489    5.43530418750112
C         4.62614159548699    7.37695659006962    5.32118004366860
C         5.45256595388814    6.33719636223458    4.81083744335573
C         6.27784042215488    5.66210179900358    5.73118121605253
C         7.11854133442679    4.66202770496395    5.32135202946934
C         7.14879562740493    4.26895073717528    3.97910621754075
C         6.34021355846554    4.89069687268962    3.06854295470586
C         5.47932821199064    5.95926710565088    3.43271815131981
C         3.76828091553958   11.34575705908381    0.99244087221370
C         3.09376868043589   10.03885825892789    1.27549092696419
C         3.38285269189950    8.89996101961984    0.46682917789881
C         2.74856013408959    7.68060855016401    0.70471850238731
C         1.80359969194523    7.52717018119187    1.75653362664271
C         1.51204290985102    8.65771024160133    2.53940327523071
C         2.12337424080150    9.91261138668692    2.28422919172158
C         1.10614159593980    6.20787917615781    1.98305182157751
C        -0.39449076038779    6.33203472537042    1.70375741313034
C         1.36655610392414    5.70104881579417    3.40399398991017
H         9.66626910208786    7.37778576854808    4.96557880125625
H         7.73393133152152    8.83071869544517    4.75248159057383
H         9.06777241036244    7.12160439818975    9.19783284102084
H         5.42358718797473    9.54546645113233   10.14158978055748
H         4.54206241142430   10.51187348207791    8.06047225799735
H         3.22692795439282    9.00646523115581    6.48314283562514
H         2.35792198654110    9.59245814752437    5.04575807653619
H         4.62986971902150    7.45076141093013    6.41009878405642
H         6.26197197923469    5.96101565049315    6.76843582746546
H         7.81480335279853    3.47854527625723    3.66954637259708
H         6.35158682427272    4.60154000478385    2.02899664351601
H         4.82216596417136   11.27922001106686    1.27255383949329
H         3.71909126076293   11.57814825818863   -0.07035574977318
H         3.31187524860675   12.15584041513685    1.55693403654428
H         4.06822541913339    9.00503232807727   -0.36724065204542
H         2.95401422882791    6.83588381819876    0.05574161786638
H         0.73422341800735    8.59847492309759    3.29353722103479
H         1.80236210238393   10.79104392804325    2.83445540499745
H         1.52791342847672    5.47835169743179    1.28319650938012
H        -0.87095369339512    5.36029923603057    1.80521707590608
H        -0.86667924201760    7.01795128261969    2.40355912026572
H        -0.56768689108673    6.69696365133976    0.69333144130480
H         0.97016354681747    4.69580306107068    3.52276459238081
H         2.43931647378058    5.67626188417501    3.59758324318138
H         0.89401572740959    6.34430064945926    4.14334893112555
H         6.14059075620210    9.87479157861852    4.80185374240154
H         4.27014424084871   10.95155617926430    4.35807950802325
H         3.93463384516720   11.29514224699999    6.07320234429546

