104
CSD_code = MUXKAT | q = 0 | S = 0 | Stoichiometry = C47H48N7PPt | MND = 4
Pt        2.94237762989123    4.32922233106237    3.97870966746467
P         1.18325672547085    3.38876166081702    2.90925814179227
N         4.39814663711692    5.09785922199218    5.05720485746496
C         6.36701791225839    6.18816700974759    6.55741868371300
H         7.15553547442810    6.62130171339649    7.15505634067993
C         5.04687347777694    6.16034437994093    4.57090759493470
C         6.06903988664805    6.74112486708222    5.31952266373741
H         6.59671766684199    7.59501460774354    4.92954867557195
C         4.52354107492928    6.54078636273736    3.28000952188691
N         3.49658894856505    5.80229444522539    2.77600039759785
N         3.16484659192713    6.31981383510286    1.60463655428371
C         3.98965333512935    7.35138769592385    1.42512447739190
N         4.85031682937809    7.52429150881834    2.44425215653176
C         3.95040368629934    8.24660711790629    0.23360696225215
C         3.02069747187461    7.67632308986285   -0.83771426263127
H         2.02106205967453    7.54808234047708   -0.41858983765395
H         3.37915769610234    6.68989723783122   -1.13860907933742
C         3.43532678796149    9.62568049006035    0.66890898333163
H         4.09205439887690   10.02438905435233    1.44479148210489
H         2.43401696453937    9.52020160179333    1.09441411769744
C         5.36158464292509    8.40284402151638   -0.34399834084895
H         6.02313778497801    8.79492403355138    0.43022495147738
H         5.74179052169754    7.42350545674328   -0.64543813769177
C         2.98632223711928    8.61855217479334   -2.03897455132959
H         2.31967276162771    8.20554545875025   -2.80580298280389
C         3.39906686406532   10.56385014421593   -0.53463090104797
H         3.02786272202722   11.54567910773057   -0.21727782053552
C         5.32212982433030    9.34282685944175   -1.54637100615837
H         6.33298373728253    9.44719006155128   -1.95817945972398
C         2.46894245050385    9.98808534034836   -1.60150782161862
H         1.45776076861235    9.89068633468141   -1.19912694991644
H         2.42557475331250   10.66234249367190   -2.46071448994778
C         4.80699441652574   10.71286551664155   -1.10869230626254
H         4.79136447337663   11.39557076545634   -1.96213711742281
H         5.47287035394067   11.13522602945962   -0.35279184194655
C         4.39411274461083    8.76665996804367   -2.61527253881897
H         4.37300833626267    9.42787001628354   -3.48538612305464
H         4.76533822613012    7.79281909163622   -2.94354054112814
C         4.65744820579330    4.55268650070455    6.25159797706847
C         5.66711468518953    5.09220111413094    7.04530873994868
H         5.87991354336078    4.65663873465948    8.00694323813139
C         3.77566120707199    3.43840548685416    6.51352913997177
N         2.87803492909002    3.12471016747008    5.54233861785003
N         2.16230474079029    2.09681069907482    5.96212525569882
C         2.63712054688612    1.81055275134023    7.17675043869045
N         3.64011289074900    2.61871883426340    7.55665395311660
C         2.06442278865295    0.71448625247364    8.00864303561857
C         2.07243471909560   -0.59176099908755    7.20531122756753
H         1.51467902653233   -0.44251162601270    6.27839155334485
H         3.10094066538945   -0.84995301671724    6.94103041278381
C         2.86279246891914    0.52728725134465    9.29812854782182
H         3.89881600261214    0.28623979607185    9.05313811530310
H         2.86844475114370    1.46271325608783    9.85994930104994
C         0.61244248463983    1.07286355737946    8.35499231721426
H         0.05276819827694    1.22181561817161    7.42920025961250
H         0.59352923558248    2.01221526619441    8.91344329683663
C         1.44995943986021   -1.70921185680210    8.03871279812936
H         1.46350967781495   -2.64202107410527    7.46228878910743
C         2.23643541420614   -0.59244238778858   10.12655893097783
H         2.81153857081478   -0.72535880916578   11.05037619419759
C        -0.00841372824870   -0.04596369748362    9.18686910274064
H        -1.04356735682971    0.21857634166789    9.43450098672922
C         2.25306347371507   -1.89404896447221    9.32582475148119
H         1.82169739862662   -2.70300750599268    9.92094659197055
H         3.28274580180196   -2.16804695836922    9.08460242394159
C         0.79344189834170   -0.22908759776625   10.47471750926070
H         0.77385466242289    0.69432467067883   11.05816759421371
H         0.34649746740821   -1.01971619756401   11.08283285505966
C         0.00696105939618   -1.34551190884902    8.38411752424883
H        -0.45077860232538   -2.14915663099080    8.96659369914171
H        -0.57287930687974   -1.22068617877949    7.46654069367215
C         0.33117893260153    4.23379787605303    1.54639334728359
C        -0.97719009034492    4.69190107119377    1.63747857144703
H        -1.54241362906185    4.53733229573656    2.54629840266239
C        -1.55061319801414    5.34572403112259    0.56027415072026
H        -2.56761125202725    5.70360231142688    0.62984791964901
C        -0.82390236765059    5.54292596430029   -0.60186478333003
H        -1.27548470955845    6.05588232091041   -1.43829557103980
C         0.48339945154610    5.08930078010396   -0.69188384057977
H         1.04850932199253    5.24897541713729   -1.59748575177023
C         1.06368655091132    4.44156855594140    0.38080531784218
H         2.08847065607843    4.10114330877183    0.33578371919946
C        -0.09028049472876    3.15508678889069    4.18121103722286
C        -0.89139773100172    2.03068804495933    4.31297765374119
H        -0.80404938071449    1.21744191855314    3.60740428345353
C        -1.78433225760763    1.94822409913841    5.36816485139814
H        -2.40296572538720    1.06959831564959    5.48031126953000
C        -1.87853054595512    2.97966669807346    6.28749728343385
H        -2.56884552995793    2.90277596611363    7.11443040163806
C        -1.07632921871054    4.10381674583322    6.15955319299144
H        -1.14345264840367    4.90123366253867    6.88489586060866
C        -0.18209765558163    4.18899295632683    5.11115949673637
H         0.47291329642977    5.05438491157959    4.99794838497559
C         1.53062660478378    1.74674706494645    2.22869294739973
C         2.73004678028809    1.14325727941310    2.59073603807580
H         3.41552832228909    1.68719615693245    3.23570276123798
C         3.03374011940087   -0.12461948236208    2.13025368778237
H         3.96275864922911   -0.59669289747007    2.41323609663629
C         2.14283414230692   -0.78885514484777    1.30200240512567
H         2.37736610444973   -1.78004516177641    0.94303853892102
C         0.95479301162689   -0.18233179778016    0.92437077420519
H         0.26895562330793   -0.70027817795502    0.26993287906538
C         0.64566818174192    1.08563596067970    1.38276582097160
H        -0.27307514967323    1.57046782534176    1.08099686007327

