39
CSD_code = MUXQUS | q = -1 | S = 0 | Stoichiometry = C18H14O6V(1-) | MND = 6
C         2.43215121990588    8.10398533816910    5.40706020335455
C         3.59089974451397    8.86177648960573    5.97625400395363
H         3.37336973083871    9.88209160262150    6.25799385552288
C         4.78729758095531    8.28788303679680    6.11429043867316
H         4.87400319371338    7.25878076299044    5.78326968604286
C         5.99499952076573    8.88308384283499    6.66186586990140
C         6.03267378086657   10.17779448894405    7.18513547772150
H         5.13660351840794   10.77855112448342    7.18653704346839
C         7.20175997959745   10.69636454775336    7.70629934160671
H         7.21144877458341   11.70019241710480    8.10842391988709
C         8.36201194156533    9.93841069426164    7.71772233128086
H         9.27504873009463   10.34719155572733    8.12718862953387
C         8.34272760735091    8.65338368896500    7.20097657912479
H         9.24411172195830    8.05611288541856    7.20600968648896
C         7.17373082497160    8.13271047127604    6.68079551290751
H         7.16336938081276    7.12893866424430    6.27985872604752
C         1.37569226022216    6.70545867019850    2.40906727399582
C         1.93667677120690    5.86419354774862    1.30576837846195
H         1.52523345542741    4.86728038506245    1.23758384873952
C         2.87801815697039    6.34157897299641    0.48981757464406
H         3.21142375343888    7.35692396484352    0.67414879114063
C         3.51600520136425    5.65496588682988   -0.62098156323641
C         4.53841082762413    6.30065518249490   -1.32112248427234
H         4.83347528396034    7.29591939547946   -1.01988679929318
C         5.17340549496098    5.68708432028343   -2.38351313310730
H         5.96362282694468    6.20355695355747   -2.91086291662458
C         4.79989995340153    4.41166218532802   -2.77418733260431
H         5.29486483108359    3.92963500673288   -3.60552166710375
C         3.78521495861019    3.75842078858365   -2.09250324228203
H         3.48820425422155    2.76369628264132   -2.39522198859644
C         3.15016643534403    4.37016004920967   -1.02961841613605
H         2.36000512460747    3.85037985607010   -0.51051048186464
O        -0.29870799336746    6.68636319509195    5.61637907666606
O        -0.82877077520995    8.34312263302888    3.83315518755736
O         1.34426168411444    8.74862681555335    5.32443042874656
O         2.55922364735151    6.92657263562238    5.06159169885439
O         0.49694611577512    6.14828602526565    3.13221907189980
O         1.75893027964979    7.86691463733567    2.57109221568865
V         0.28189020139209    7.47779099885192    4.43899517322926

