108
CSD_code = MUXSUU | q = 1 | S = 0 | Stoichiometry = C54H47Cl2NOsP3(1+) | MND = 6
Os       -7.33010554771385   -0.57995288141669    8.28979373081644
C        -5.66112258567108    0.13878682065077    9.03330061785280
H        -5.02452341505185   -0.51125371849790    9.64176688008854
C        -5.23039553017598    1.45512543748555    8.96646627865660
C        -5.78677510303825    2.47855711687826    8.18622004501401
C        -6.86110957126797    2.24270245130962    7.28614495330617
C        -7.33611088603143    3.38033069426098    6.42850376165173
H        -8.15480969406095    3.06398942658643    5.78636381420901
H        -6.52824258088839    3.76466486520610    5.80868504714234
H        -7.68396095306339    4.19779905085926    7.05804716027444
C        -5.80968416096904   -3.29286618522051    8.21948692803062
H        -5.97739804944976   -4.33551746940979    7.94564854740823
H        -4.79972259563623   -3.16495944228732    8.62243504006697
C        -5.28723407179204    3.86350314282118    8.32978106959771
C        -4.36659807707907    4.39997394043328    7.43475116762368
H        -3.97643479131150    3.78243318646057    6.63800629427364
C        -3.95096985306478    5.71187523697756    7.56537451671560
H        -3.23550615621210    6.12045373323038    6.86802011905702
C        -4.45961726352160    6.50398230847671    8.58153892720584
H        -4.14585455184164    7.53239065521891    8.67172740988187
C        -5.37704311037733    5.97736136589802    9.47467933130642
H        -5.78036119958312    6.59426300811740   10.26354093593432
C        -5.78807894848156    4.66144470068226    9.35398755897105
H        -6.51862641089917    4.25086091440400   10.03655933614570
C        -6.75452908174339   -2.89858826428657    5.41796784851015
C        -7.30912298015183   -2.06528450019121    4.44908861345919
H        -7.32185201568965   -0.99700042497250    4.62321945272560
C        -7.85453733137647   -2.60393456856645    3.30109223388855
H        -8.29509221047312   -1.95856036783478    2.55658061484543
C        -7.84704476826972   -3.97776358048202    3.11387829284589
H        -8.28341394222993   -4.40315645422698    2.22323831142383
C        -7.28462348935936   -4.80667359596932    4.06964931469177
H        -7.27720730880557   -5.87622874584487    3.92129762931152
C        -6.73508038200349   -4.27352497296884    5.22316484532847
H        -6.29956821403596   -4.93770144229058    5.95639306186604
C        -4.39440993022327   -1.65213279258016    6.28274372418285
C        -3.44616933331148   -2.64529436302599    6.06738368934919
H        -3.69304238587600   -3.67864151327674    6.26685096775327
C        -2.19275878611885   -2.30623322506553    5.59072757330486
H        -1.45480409969686   -3.07611161914918    5.42130399444929
C        -1.88451904436506   -0.98145353901444    5.32136906810303
H        -0.90562675358868   -0.72266005829527    4.94740790158888
C        -2.83320910126614    0.00859051773439    5.52251157138693
H        -2.59362469250768    1.03873500853385    5.30169382387783
C        -4.08819451634345   -0.32578551075107    6.00119866430579
H        -4.84313490146870    0.43270086016577    6.17021136226707
C        -8.27356737957247   -3.94916310284216    9.60409827279283
C        -8.80527606726220   -4.27322553260294   10.84969131681920
H        -8.43764068311684   -3.77641134878178   11.73730037305757
C        -9.80097096370251   -5.22831379194290   10.94091951952650
H       -10.21147391797105   -5.48345190533683   11.90624909833828
C       -10.27904012720223   -5.84756166690750    9.79711638540400
H       -11.06152972266698   -6.58715949562785    9.87237539807640
C        -9.76562798800121   -5.50887730237525    8.55494512271870
H       -10.15107923095935   -5.97830803322815    7.66232281672939
C        -8.76878087727932   -4.55733230868928    8.45240482537250
H        -8.39434662910899   -4.26741669151011    7.47934192023010
C        -6.14164398888566   -2.67398514898796   11.03122925890209
C        -5.31375698431568   -3.73830529279130   11.37171493775772
H        -5.22134067009696   -4.58578268212146   10.70658102009881
C        -4.62536819633986   -3.71430830059117   12.57052933478427
H        -3.98751766710527   -4.54274096732928   12.84013489574877
C        -4.75961193031780   -2.63432109821455   13.42972020748193
H        -4.22210323992375   -2.62395172645067   14.36606766239157
C        -5.59172577619190   -1.57792857232380   13.09685890452207
H        -5.70595820228979   -0.74147705894952   13.77103389692430
C        -6.28478913975920   -1.59685834879059   11.89977348985441
H        -6.94750736866655   -0.78635329408834   11.62675671040141
C        -4.80872021223465    2.15330537041142   11.76823827448469
C        -4.07377026426113    2.53964145522780   12.89062922950345
H        -3.00514818008355    2.69292589051777   12.81339387206173
C        -4.71983767871435    2.73077757241251   14.09772074298631
H        -4.15396538059418    3.03088985148468   14.96663796037329
C        -6.09074051508561    2.53718011588117   14.19163107196215
H        -6.58938452323733    2.68807928600544   15.13678249791173
C        -6.81816100990362    2.15229972305092   13.07713130647129
H        -7.88380152521957    1.99818488740087   13.14531600325468
C        -6.18384141470308    1.95890433083178   11.86165582828396
H        -6.76137136548676    1.65297769067011   10.99909060072732
C        -2.77942966570503    3.18151773643169    9.87629663764367
C        -1.78973918164901    2.97770311193092    8.91743812181251
H        -1.73992752783598    2.04230920232851    8.37974580377951
C        -0.86813792318419    3.97426225429726    8.65859637699178
H        -0.10151060387224    3.81564450216147    7.91563626456823
C        -0.92362547072854    5.17134162132374    9.35507300229296
H        -0.19947583333843    5.94553452656653    9.15464515154092
C        -1.90732899732520    5.37341886549517   10.30872909558829
H        -1.95170846247766    6.30456967970503   10.85206536402601
C        -2.83890244287950    4.38539802101724   10.57089108819598
H        -3.61166094657091    4.55162220515259   11.30635370367833
C        -2.96763874482414    0.33286839364210   10.39871111731814
C        -2.68223454433932   -0.19694520185503   11.65100830199836
H        -3.04773254528016    0.28668986330466   12.54421018647103
C        -1.94361156262454   -1.36365146960090   11.75262766012061
H        -1.72644059227345   -1.77333675530992   12.72667537009537
C        -1.49089036031226   -2.00538029589235   10.61281982067368
H        -0.91807700700985   -2.91583251741587   10.69761936440387
C        -1.78008487058295   -1.48261829933335    9.36127734204465
H        -1.43905779084760   -1.98279614359261    8.46729057231798
C        -2.51582473248898   -0.31894399678389    9.25095059425930
H        -2.77526174760792    0.06246832264314    8.27282215333566
P        -6.07695431359999   -2.04380410502089    6.86803274194637
P        -7.04780342810804   -2.62694200843505    9.45580898710424
P        -3.96019241171391    1.84401505801770   10.20792022106232
Cl       -8.73116075108739    0.32241438244205    9.85844741255725
Cl       -9.16035260894356   -1.52141064375072    7.10192772807656
N        -7.44515665414764    1.07700027336608    7.20603299818170
H        -8.21522908224475    1.04800570702094    6.53205203125907

