108
CSD_code = MUXTAB | q = 1 | S = 0 | Stoichiometry = C54H47Cl2NOsP3(1+) | MND = 7
Os        5.20521389256710    6.76282922175939    7.66599612897765
C         3.45172020304943    7.19719481683693    6.36973519136701
H         3.62762279207610    7.67790698031694    5.40292834466847
C         3.51852432280768    7.90660733906148    7.53566060269427
C         3.28207349615333    8.89736401094952    8.41553415312298
C         4.32230055546173    8.94807466580430    9.41504427404035
C         4.33933687562030    9.89796613655334   10.56177787389606
H         5.36329612160518   10.09277551160815   10.87468245462385
H         3.80098167292613    9.46610296419101   11.40648643893053
H         3.85885466102971   10.83507360823748   10.29256303398610
C         2.63804568451008    4.54943898971846    7.63370349770077
H         3.01245009959292    3.57305864147296    7.31067664645773
H         1.65340089890784    4.42920632988812    8.09320146664552
C         2.15064707402161    9.83309750548834    8.31867005975019
C         1.35072943508635   10.13306253236291    9.41661938621671
H         1.54905210541231    9.66383367695676   10.36739129710121
C         0.28744844884332   11.00811831937631    9.28433249381672
H        -0.32951781553553   11.23200507969583   10.14142614751069
C         0.01270645274359   11.59669165627275    8.06103747703920
H        -0.81567569674876   12.28121248304668    7.96307414092511
C         0.80711849810646   11.30666868144902    6.96382927731777
H         0.60211232526035   11.76660281858352    6.00887207260168
C         1.86814034742449   10.42918605100013    7.09004385223661
H         2.49680915764731   10.21343551737216    6.23619656388267
C         2.86388701009750    5.97845098035628   10.14901273685027
C         1.60227494915387    6.51514928602384    9.91979940629128
H         1.14529733269885    6.45665103646668    8.94000374628668
C         0.91836373510699    7.13453410858044   10.95138630417899
H        -0.07060548013435    7.52988713190848   10.77274537225569
C         1.49974661681933    7.24881439761376   12.20391407745682
H         0.96190493608433    7.73158540406804   13.00575899215883
C         2.77451627847426    6.74907494405632   12.42658501509497
H         3.23243568030915    6.84750004471492   13.39931804341498
C         3.45636224310528    6.11936086767959   11.40323270953348
H         4.45028914302099    5.72164435795368   11.56311985111076
C         4.42926243126951    3.67382053637507    9.59262854612917
C         5.66248821541685    3.12386617647664    9.26302967208242
H         6.33699996451476    3.66216529598631    8.61443388047147
C         6.02860231495089    1.89703383716197    9.79010600952871
H         6.98932813444973    1.47413703239619    9.53988301253310
C         5.16880598653391    1.21853429169401   10.63673860023360
H         5.45754267409297    0.26397356882352   11.04945909578545
C         3.93462226851652    1.76372478924753   10.95964247838306
H         3.26385511146728    1.23360894852591   11.61895889103729
C         3.55955938540172    2.98722768571839   10.44016000362363
H         2.59935525165622    3.41579058685382   10.69553298913889
C         0.76215915573584    6.11049137044539    6.20582867498066
C        -0.14811835974762    5.07937156877305    5.97917095261690
H         0.21846252058420    4.08070025745561    5.77407693545327
C        -1.50496273674482    5.33524943681174    6.00947317872147
H        -2.20809025666816    4.53596187500083    5.83189066822159
C        -1.96126053794898    6.62043320724296    6.26755173986261
H        -3.02152954895222    6.81877355167595    6.29268517189610
C        -1.05907668920308    7.64694965311419    6.48880229711747
H        -1.40827506964521    8.64886479464168    6.68895017775034
C         0.30261094466627    7.39579153065250    6.45511908293533
H         1.00074445464914    8.20052131470923    6.62850372308453
C         2.64617634261336    4.92941677816836    4.53035274158396
C         2.95741124236377    3.59840016022249    4.28979040608881
H         3.19435639722840    2.93287246122841    5.10673962375197
C         2.98705901045437    3.13625258120698    2.98679197327773
H         3.22913399077603    2.10286424700502    2.79247141833433
C         2.71457619913984    3.99539590528701    1.93362540501849
H         2.74708848517458    3.62890815874379    0.91932916142560
C         2.39919157891288    5.32252022097496    2.17859357508422
H         2.18136694522154    5.98983063178087    1.35853196278361
C         2.35546580860547    5.79197323064999    3.47810555292635
H         2.09233599724656    6.82235947697292    3.68251400557783
C         7.05977804477228    9.56359713423327    7.30243229904904
C         6.09333503862496   10.56469826645621    7.39302124825073
H         5.17755898502042   10.47904812616506    6.82263246632370
C         6.30343730657792   11.66090574463713    8.20795193893913
H         5.55807487344174   12.44070154627735    8.26284753529628
C         7.46688432411497   11.75576495691253    8.95605784502866
H         7.63092374738137   12.61367175109264    9.59029615633501
C         8.41365673889872   10.74583993147977    8.89685269169014
H         9.31265437126219   10.81250720706951    9.49076591865210
C         8.21097909539859    9.64744102476540    8.07963132035895
H         8.94032653096137    8.85061593468073    8.04373843392824
C         8.30573686957973    7.43193217452027    5.81009065203719
C         9.25317583443697    8.35018218394092    5.36017994046162
H         9.03707091270587    9.40968308192003    5.39235394876779
C        10.46900063589746    7.90402867147974    4.88058852469926
H        11.20611988698382    8.61700947446295    4.54274639440157
C        10.74101164424084    6.54511698201856    4.83156799847684
H        11.69416358073502    6.20090907791362    4.45986767984738
C         9.79037660347163    5.63213561053906    5.25402769696788
H         9.99810399956551    4.57386001529065    5.20872292843917
C         8.57020357387872    6.07057372990045    5.73859787974406
H         7.83379892178806    5.35618741527763    6.07409364468415
C         6.10623845235374    8.64148374066430    4.72184697273276
C         5.61736916352238    7.66101661827392    3.85851215540861
H         5.56717959706467    6.63218234491905    4.19116106258177
C         5.21853399021155    7.99153977672045    2.57713861481947
H         4.84271523467570    7.22272261500181    1.91823521998851
C         5.31188824063463    9.30398964810141    2.14185708838728
H         5.00234763347681    9.56616634045083    1.14164961966773
C         5.81913870028173   10.27698863631963    2.98705581075070
H         5.91090902557646   11.29632440421900    2.64308901018359
C         6.22050853656815    9.95129551983960    4.27148748315045
H         6.62766130419311   10.71736173374456    4.91490708458747
P         3.88842849268869    5.23803203584889    8.84896813638055
P         2.52851485771287    5.65142221415099    6.17953327134317
P         6.68834272581739    8.06131034903427    6.35431377715053
Cl        5.14483513860059    4.89323307652197    6.15045374179443
Cl        7.18651471711941    6.05458654306810    8.66031116937330
N         5.26803784049562    8.08723466552113    9.19826640246383
H         6.04265316335682    8.08034843713743    9.86281749929671

