136
CSD_code = MUXVUY | q = 0 | S = 0 | Stoichiometry = C43H88BOP2Rh | MND = 5
Rh       13.01164032608201   14.12838930823097    6.70752645271289
H        11.37865196186458   13.61444683382047    4.96085057012324
H        13.39250331756691   13.18451273249761    5.45665795435045
B        12.28276619843280   12.90441132799397    4.57108309330078
H        12.69860498621008   13.19361042472532    3.49783731451051
H        12.06378407825588   11.74275331818524    4.69095238288283
P        12.51654155922339   12.24653234760996    7.90700910611898
P        13.99442612905627   15.85364991041622    5.57670360862869
C        10.73566148252299   11.76939429511626    7.90968235496767
H        10.53194001843229   11.32455230574834    6.93316776465737
H        10.53482929515994   11.03095227439795    8.69149935070374
C         9.86864180318390   13.00935146717888    8.11238561118334
H        10.12109213768272   13.46972150853340    9.07244863984292
H        10.10968367164677   13.73672942633055    7.32939104751561
C         8.36990981451908   12.70727359179374    8.10883814916925
H         8.16155982375590   11.95650871496470    8.87688401473052
H         7.83462314408020   13.61822369538978    8.38922715429453
C         7.81410933632930   12.21096545689044    6.77269934268047
H         8.30517932234684   11.27990695402917    6.48432844757406
H         6.75291024406433   11.98649991593201    6.91367813797591
C         7.95795572374429   13.23067796300841    5.64456128603655
H         9.00985778648184   13.32694362174586    5.37659861541516
H         7.60514933781600   14.20455945689034    5.99531911382330
C         7.15471864780470   12.82649466232065    4.40916801349808
H         6.10653155055133   12.70514707895367    4.69740507786673
H         7.51066772272715   11.85986870541352    4.04524181661785
C         7.24193947056163   13.85689368947130    3.28152925152928
H         6.45760036596281   13.65202389918473    2.54777293943393
H         7.05153553592863   14.84759459897321    3.69800948432454
C         8.59374285223823   13.83873709233844    2.57156430131545
H         8.73453060976689   12.85488534823435    2.11619814633539
H         9.39746836409496   13.97000214146576    3.29437748267302
C         8.71907729848882   14.89418894936509    1.47168844312541
H         9.67932834392013   14.75294401595019    0.97139731746697
H         7.93875104783400   14.72439039266490    0.72446138950013
C         8.60974600037730   16.34810962920532    1.94511157564346
H         8.86223816099551   16.99809432875714    1.10282281449840
H         7.57299434853850   16.56083198808370    2.21532337150688
C         9.49907968304978   16.70812769866403    3.13589274705272
H         9.19924973572459   16.11775992485115    4.00312694864864
H         9.33287845688917   17.76001275758194    3.38616844487186
C        10.98674317679048   16.48303265561137    2.87877249355229
H        11.32369424480825   17.12425836536801    2.05995296800808
H        11.14838111852472   15.44588566072974    2.58461449595246
C        11.81681323975418   16.75312463747853    4.13083036795786
H        11.74721523468819   17.80798508067343    4.40785709976410
H        11.39667566958582   16.16282355074848    4.95648872859192
C        13.27791976184688   16.34160164467594    3.95293165991959
H        13.87050710095908   17.11684291069395    3.46143017662917
H        13.32459614898126   15.43726996169126    3.34043905011421
C        12.88594964006371   12.33484949549985    9.71726281546126
H        12.26117304602182   13.12872169598973   10.13623362538361
H        12.61899566720427   11.39997845207415   10.21544782877630
C        14.35572564439400   12.68357355768709    9.92662061820898
H        14.60870905417298   13.49764121887569    9.23611502166910
H        14.97858934048167   11.82307295675058    9.67099706664843
C        14.65343274740033   13.11243810697020   11.36006465253886
H        14.04790811836599   13.98569010044639   11.60771542343261
H        14.35735384393160   12.30796550651778   12.03959637616521
C        16.13171358912217   13.42539008046226   11.59873330381509
H        16.72029158480111   12.52971982472496   11.38360107570399
H        16.26807861553606   13.66124973195672   12.65720205171483
C        16.68464272526351   14.58153892284059   10.76362306381622
H        16.60280011506362   14.34400978571321    9.70212871555399
H        17.74924903250663   14.68416561587804   10.99288052368490
C        15.99564286095001   15.91625319804939   11.03728217054939
H        14.95073911821972   15.86493040442805   10.72750450033465
H        16.01701719777738   16.12054239979046   12.11071819819669
C        16.67111100606104   17.06432396399585   10.29079165154674
H        16.61227300722835   16.86544446375072    9.21857864725342
H        17.72974704219905   17.10398534916204   10.56100037182348
C        16.01970626821880   18.40808776170356   10.61063209910891
H        16.09548149862347   18.58114928957436   11.68716248610289
H        14.95727321175373   18.36032167858239   10.36652955468024
C        16.67051601908088   19.58868175911246    9.88587444412416
H        16.28905182524311   20.51900001807885   10.31404988524957
H        17.74716728062347   19.55879001682700   10.07228554073441
C        16.43099667437853   19.61060341022023    8.37485104190239
H        17.08841100137619   20.35931633174518    7.92523287125039
H        16.70648122519816   18.64265611140509    7.95704996878933
C        14.98619851729112   19.94624759787495    8.01163238886029
H        14.75247311568395   20.94363171791496    8.39300732090137
H        14.30809749151543   19.24733842142481    8.50073313057982
C        14.71843208674156   19.93275650579545    6.50576641249838
H        15.36098059256418   20.67272024528499    6.02140840059258
H        13.68193645837765   20.23752713323737    6.33880736796233
C        14.94576874141884   18.57667907970734    5.82932772054589
H        14.66733593782100   18.67775944794016    4.77832308061705
H        16.00732952591721   18.32949947536749    5.86578795561653
C        14.12994186751588   17.46472669665404    6.48054194875960
H        13.09806378015942   17.79952642309841    6.63414215069246
H        14.53803053105744   17.22508810310639    7.46599404676549
C        13.36524475978504   10.68183949215772    7.40534460879345
H        13.08936482776816   10.52836225126686    6.35816390233296
H        14.43714634114682   10.90095269249606    7.42495081176817
C        13.05754440912744    9.42556460317179    8.21541696917305
H        11.97628313293740    9.28720810094903    8.27612364095262
H        13.43689789988035    9.52718143888433    9.23278177764907
C        13.65363484297378    8.16672758938578    7.57726505583497
H        13.31587736761618    7.29665042558435    8.14670051675657
H        13.25707595740965    8.07089098140697    6.56349371626646
C        15.18150332674828    8.14612510940602    7.50667515634657
H        15.52729663109836    9.02135666745869    6.95720335146014
H        15.48575637229085    7.26384822697517    6.93766604761282
C        15.84787786919849    8.09096178965339    8.88012774026502
H        15.57829434828787    8.97237305209426    9.46197769126182
H        15.46775294893171    7.21763374513038    9.41676696284882
C        17.37260402593601    7.98519830116371    8.80144272448942
H        17.63015651065105    7.14200229513077    8.15561479777574
H        17.76205454003380    7.76538762981090    9.79893690437152
C        18.06733501801135    9.24154020088208    8.27139131026127
H        19.11855840475562    9.00553453492623    8.08782520263255
H        17.62573730520645    9.52273822966941    7.31579031659824
C        17.99748173541028   10.41796994718120    9.24293914481211
H        16.95534904110018   10.65308897236741    9.46610775301871
H        18.47655816510757   10.12455878282251   10.18081894659830
C        18.67644391826115   11.68073195701539    8.71117356500027
H        18.76173004326435   12.40250664134104    9.52746256500019
H        19.68870486250250   11.43681376373697    8.38013066108970
C        17.90776391953588   12.33552069870196    7.56494160693129
H        16.87865142003957   12.50957118774285    7.88478630612388
H        17.88110234379728   11.66477480527676    6.70437162711580
C        18.54667474986573   13.65532573009700    7.13764269410317
H        18.55353677283370   14.34808662030744    7.98276207635388
H        19.58666999980850   13.46555195405245    6.86083403345216
C        17.83324145957177   14.30840091952076    5.95233843011425
H        17.72508041765189   13.57466042146712    5.15002720425239
H        18.45323394022811   15.12457068056825    5.57093005402065
C        16.45882377321642   14.86412197497511    6.31393093913077
H        15.81797454316139   14.06170806819873    6.71059433558267
H        16.56899053285605   15.61890634125056    7.09743806085345
C        15.73941932572351   15.46920201690562    5.11194036511679
H        15.68787446652400   14.72991395138754    4.30669169367325
H        16.25596886243303   16.35427324787791    4.73321853993537
C        12.68528372825286   15.18800056381609    8.16305685669294
O        12.51128310187818   15.85837311898140    9.08855969736728

