132
CSD_code = MUXWAF | q = 0 | S = 0 | Stoichiometry = C43H84BrOP2Rh | MND = 4
Rh        9.58388283466865    7.72225200229547    3.73068178543196
P         8.73681147613767    9.38805623430059    2.41904822886050
P        10.53986911187277    6.25750776467823    5.19666041729808
C         7.14110047201667    8.93169445820428    1.61170824407749
H         6.64925740220967    9.82601255922948    1.21792626662359
H         7.37441420256040    8.26692630450947    0.77345615216611
C         6.24293647152129    8.20060097328656    2.60652912427074
H         6.81679179346671    7.36695347297607    3.03991802635522
H         5.97129998475163    8.87084501782199    3.42558853379202
C         4.97699018920136    7.65326877491715    1.95565946494848
H         4.43361856766034    8.46870193245333    1.47122126175295
H         5.25347719884813    6.93469795654902    1.17897562205704
C         4.07073675704272    6.97009922836686    2.97744991865166
H         3.69861804256330    7.71252761602011    3.68666192686313
H         4.66614629855937    6.24862129625822    3.53821929911387
C         2.89349929541812    6.26071096013414    2.31306622877253
H         3.27143458943355    5.48003164840581    1.64979838341171
H         2.35414500212989    6.97907450159764    1.68977971665770
C         1.90244619375322    5.65445619542830    3.30976137415746
H         1.11513103483762    5.14635273359346    2.74681352114027
H         1.43311740182807    6.46484217887549    3.87337737489226
C         2.51739765666973    4.67124854585397    4.30786350603569
H         1.72598327117242    4.31729473964273    4.97377181362801
H         3.24622562031271    5.20010285572774    4.92096667048368
C         3.17495910539730    3.46472969956561    3.64210921025531
H         2.43424315824926    2.96082704536873    3.01537911537025
H         3.98157857412673    3.79537838618434    2.98840408808509
C         3.72807321221216    2.44894886787910    4.64423904872394
H         4.14545746409522    1.60661390311336    4.08599354720308
H         2.90366087429608    2.06491456241008    5.25047801944856
C         4.80333062400210    2.99567940164597    5.58637670708309
H         4.37713796911866    3.78006065393550    6.21403242619683
H         5.11830813334375    2.18679494335663    6.25108845947806
C         6.03136866656939    3.54386320794328    4.86384849465185
H         5.73869963098681    4.37139799212928    4.21611914866184
H         6.46159528267719    2.76333204661735    4.23118414101659
C         7.08630773855915    4.05005395423216    5.84460901394506
H         6.63196256364208    4.78652116192638    6.51163336902367
H         7.44341288860769    3.21992849326973    6.45977758381412
C         8.26776443569798    4.69608478837812    5.12806240247515
H         7.90454593855120    5.54077898959054    4.52183937928868
H         8.72273270509127    3.97466202623061    4.44367073742307
C         9.31742145712013    5.22006951759811    6.10599555429843
H         9.81827488395938    4.39506143020446    6.61892489604433
H         8.83565907941944    5.86052607915656    6.85090479926944
C         8.29114667286420   11.00346450641045    3.18936470022827
H         7.95552606713756   11.69034923210332    2.40655742075032
H         7.44278653186596   10.79331108056674    3.84771437329610
C         9.42226585910042   11.60974867023574    4.02223677771570
H        10.01649251366249   10.80110001261345    4.46002243267574
H        10.08351783822157   12.20392006793801    3.38800042622181
C         8.87156204946302   12.49138320662956    5.14041995076907
H         8.27105781479495   13.28831621215862    4.69296378149847
H         8.21684189346771   11.88832483474482    5.77244687682502
C         9.96106465214432   13.11643075050833    6.01230699078058
H         9.50854413634056   13.90859713832020    6.61407042694573
H        10.72032106150062   13.58104067774991    5.37742516040786
C        10.62272289637497   12.11190338370134    6.95469246308018
H         9.84628212422311   11.60424154687625    7.53026205003981
H        11.14973551728819   11.35629072919343    6.37241444656599
C        11.59719920590645   12.80054186447952    7.90961431037928
H        11.09624208331400   13.66535803903241    8.35273030451252
H        12.45701256194940   13.17384237881467    7.34731821577437
C        12.08486487689177   11.89937909614187    9.04473528799926
H        12.65079878694705   12.50777208533999    9.75548810955623
H        11.21913394959088   11.49458650970246    9.57411659061577
C        12.96627745950047   10.74547729890316    8.57257536760794
H        13.82282244845722   11.14472219171135    8.02336631836517
H        12.38933508042801   10.11775852630850    7.89444090431543
C        13.46390604876808    9.90711159494493    9.74897701566604
H        13.94351145022140   10.56820628742748   10.47577369035710
H        12.60839382194215    9.45025769097518   10.24973333409115
C        14.47597209727159    8.82753558455336    9.35574871656327
H        14.74483612050344    8.26050142343367   10.25068319940585
H        15.38345633831572    9.31635773641069    8.99168320599479
C        13.99163505412861    7.85810113581840    8.27665612708870
H        13.75975330262286    8.42611124309056    7.37613494926645
H        14.81087462775745    7.17704225124565    8.02919216440202
C        12.77776866996897    7.03446353263299    8.70320524103132
H        11.99652754326071    7.69439230578226    9.08139364112391
H        13.07272494290157    6.36883216306116    9.51806902345580
C        12.19431352653965    6.20178351491428    7.55847712123387
H        12.99707720937465    5.63598750637129    7.08148758639317
H        11.47859777802055    5.49008403673135    7.97476338986950
C        11.48539141842216    7.09282554194364    6.54250489654572
H        12.20116039030768    7.75285163801643    6.03975978421363
H        10.76318887121268    7.73197355380645    7.06120970655058
C         9.72691387823466    9.88194904106819    0.94101742555032
H         9.68211611648033    9.04020320291226    0.24443093486273
H         9.26417966429136   10.74935364386319    0.46081073580524
C        11.17945776801732   10.17160969322039    1.30782964644512
H        11.21994052499215   11.06644640233260    1.93100908531622
H        11.56223817721370    9.33761432589094    1.91064773872107
C        12.08783631964622   10.38114419690005    0.09575037637745
H        11.66369062715333   11.15752891783132   -0.54640057656876
H        13.05059143530514   10.74387763990416    0.45919888526772
C        12.30936444760128    9.11005879071381   -0.72161802407085
H        11.36993371112287    8.81007560801364   -1.19161323686492
H        12.60908024560014    8.29891251914283   -0.05659846971818
C        13.35069282272377    9.27949857361913   -1.82977551917174
H        13.39727538256489    8.34893493932620   -2.39919032840289
H        13.01091627834773   10.05899184589900   -2.51704642099440
C        14.76037677805259    9.64967086951564   -1.35448929675177
H        14.75955105074763   10.68279225532801   -0.99980060997939
H        15.42976668653400    9.60794982240063   -2.21758834131835
C        15.32221828934635    8.75795985518939   -0.24640473970865
H        16.28652892084718    9.16520889706192    0.06947205671380
H        14.65943546863737    8.79842756731371    0.61747068009634
C        15.52248980982611    7.30667776552024   -0.67906119254386
H        14.61399141419983    6.93120316388210   -1.15182740479526
H        16.32084237286812    7.27032146595146   -1.42412402695595
C        15.87528521935293    6.38626561818977    0.49141069582874
H        16.29675404758984    5.45713233292003    0.09968325893794
H        16.64044611836849    6.85904055470731    1.11184737427257
C        14.65777695361407    6.04444005527400    1.34857513056178
H        14.22548481496190    6.96199073395779    1.74928862628471
H        13.90319983055899    5.56835349957732    0.71741690215532
C        15.00838275139959    5.10433026988714    2.50029525728215
H        15.63119756662774    5.63113606695076    3.22727269113257
H        15.59569900291385    4.27065770963051    2.10690418571707
C        13.77260322125797    4.53557424797889    3.19828623573107
H        13.13468112208819    4.05660685350492    2.45111915077483
H        14.08712841448167    3.76356218032820    3.90620837057152
C        12.95713072530224    5.58575082929169    3.94932369711949
H        13.58191079350606    6.04943155641690    4.71625774837073
H        12.64224789804441    6.37365512144776    3.25940741396240
C        11.71564635441448    4.97168999302306    4.58716890170274
H        11.98611384297701    4.30050072931072    5.40697659655750
H        11.17545530808551    4.38422159839561    3.83733357532441
C        10.27452403349558    6.90632680510092    2.25279817428080
O        10.62154836254633    6.36039158552440    1.29629328125081
Br        8.45418688073481    8.60014477255806    5.62422387147238

