32
CSD_code = MUXWOT | q = 1 | S = 0 | Stoichiometry = C8H17N6Ni(1+) | MND = 4
Ni        0.93320341281577    5.77904188950105    1.25261161296545
C        -1.43718264584845    3.23912453575848   -1.29712489097114
H        -1.44770491782799    3.45693487099667   -2.36458035747693
H        -2.38299117143864    3.56311851654222   -0.87166819014830
H        -1.35724453597684    2.15940705400435   -1.17636907456000
C         3.32388420782379    3.40333632103797   -1.43279748507327
H         3.31654052286638    2.31956547816510   -1.32509450083271
H         4.26828424058709    3.78016186887410   -1.05008139613979
H         3.26710162274543    3.63474113981534   -2.49579812102993
N         0.94228429965668    3.54745488582356   -1.12741218038046
H         0.94476510326074    2.85889387385370   -1.86902859674124
N         2.27284246582493    4.88047984282201    0.21869065774271
C        -0.28095515348501    3.92180115666306   -0.64173949773867
N        -0.39816419896627    4.78741862472956    0.29584425514447
C         2.16245195780838    4.00603089147867   -0.71143920621743
N         0.92313566542278    8.04158754484464    3.64770022295461
N        -0.34968857821999    6.65087370525979    2.25434754465034
N         2.20782021301463    6.74380876590876    2.17798650769558
C         2.07285261238715    7.63359373772440    3.13985763174663
C        -0.22222427356614    7.55823710751431    3.20117807140546
C        -1.45627163277105    8.10919526635145    3.84899962327926
H        -2.02355524111039    7.31009608885886    4.32298083046878
H        -2.08993107518903    8.59015210315706    3.10582525714931
H        -1.16927137745926    8.83776071844875    4.59949400410582
C         3.29854449167169    8.27095470160665    3.72006235563529
H         3.71225008213510    8.98149157253269    3.00593468086855
H         4.05773419896785    7.52577071074069    3.94801660577899
H         3.02771741096631    8.80607159033914    4.62367756849283
H        -1.37398311703338    4.95333938953275    0.54464122328084
H        -1.32978985128133    6.42561117951794    2.07452501203497
H         3.24746218191455    5.11360558253687    0.41194986726686
H         3.18858308030318    6.59023928505887    1.93700996464230

