59
CSD_code = MUXXAG | q = 0 | S = 0 | Stoichiometry = C28H24N6Ni | MND = 4
Ni       -1.53583558609940    4.47815382134300    0.00000082792834
N         1.12326553175648    2.53727888933260    0.10160965168414
N        -0.93107544692028    2.99041800027332   -0.95043848842345
N         0.01472133276589    4.38837050458370    1.03797939291561
C         0.98741110787317    3.50729282717130    0.99827045334299
C         3.35999127425617    3.15779166058677    1.62640439850643
C         0.20180742836295    2.33704893851464   -0.83353200482925
C         4.40185176970853    3.21796767669001    2.53202599066604
C         1.29476523965266    0.16968052952758   -1.33919225671376
C         2.08164057542685    3.56730834692899    1.99604044671466
C         1.86183562146464    4.01489219809002    3.29595353557960
C         4.17817605633312    3.67518484951904    3.82087508236236
C         0.52728004541688    1.24435681637417   -1.78023374612972
C         1.15827574840784   -0.84000512644812   -3.51060756508619
C         1.60225120363198   -0.86798696296183   -2.19822741931463
C         2.90534537780514    4.06471146530260    4.20244139144021
C         0.09377940541203    1.27103517880485   -3.10304826155776
C         0.41124777222128    0.23479136409437   -3.96237872792626
H         2.19157233709018   -1.70191419816725   -1.84602139066781
H         0.07678186879980    0.26766750733780   -4.98922188306118
H         0.86774939877433    4.29532477501596    3.61758880513079
H         3.51272849855542    2.79777054992874    0.62125963368882
H         2.72397398230715    4.40679964183794    5.21115160450222
H         1.63732830896746    0.16942822847912   -0.31650255124465
H         5.39240756642191    2.90639171266588    2.23451453689519
H        -0.46564721358728    2.11728062834543   -3.47880888282271
H         1.39964292047084   -1.65022113530293   -4.18286062847837
H         4.99217070708933    3.72205179280558    4.52934725260500
H         0.15617103626516    5.07729204945822    1.77788685320784
H        -1.50881610764626    2.61668149117637   -1.70456164579392
N        -4.19493805639019    6.41902694555036   -0.10160755215807
N        -2.14059747094724    5.96588868975794    0.95044179046606
N        -3.08639045121817    4.56793928505314   -1.03798085223480
C        -4.05908025073480    5.44901685851052   -0.99827203354588
C        -6.43165734784982    5.79852487536770   -1.62641426426944
C        -3.27348177353427    6.61925546283719    0.83353614294968
C        -7.47351438734631    5.73835414833875   -2.53204034969188
C        -4.36644287608036    8.78662096255446    1.33920148571283
C        -5.15330607383480    5.38900583917958   -1.99604622359771
C        -4.93349697094121    4.94142509107610   -3.29595977338292
C        -7.24983465255059    5.28114007326569   -3.82088998049832
C        -3.59895781612302    7.71194390620355    1.78024100317512
C        -4.22995872078952    9.79629944458292    3.51062016661825
C        -4.67393161284238    9.82428525719035    2.19823935955491
C        -5.97700327519530    4.89161118801123   -4.20245206320803
C        -3.16546021866129    7.68526138984540    3.10305630530449
C        -3.48293099469047    8.72150209394479    3.96238945056002
H        -5.26325215323141   10.65821347564748    1.84603468983060
H        -3.14846798906727    8.68862247480221    4.98923340430455
H        -3.93941004273939    4.66099100946630   -3.61759211202208
H        -6.58439793035995    6.15854314791009   -0.62126886441230
H        -5.79562848974652    4.54952607410388   -5.21116264127622
H        -4.70900305641196    8.78687665783382    0.31651100319651
H        -8.46407068392226    6.04993136462029   -2.23453194963327
H        -2.60603444738563    6.83901480134480    3.47881521967051
H        -4.47132800850453   10.60651289255561    4.18287529207848
H        -8.06382655736662    5.23427745798249   -4.52936582419845
H        -3.22783719752569    3.87902069524008   -1.77789165445221
H        -1.56285825499051    6.33962441591363    1.70456642003672

