53
CSD_code = MUXXAE | q = 0 | S = 0 | Stoichiometry = C21H22N2O5PReS | MND = 5
Re        1.63121794239659    4.82074514653502    8.52273538752441
S         3.45791135599555    4.38106623829939    7.14055706740786
P         0.89433992322693    6.26417190696686    6.71902367837889
O         0.40694936334150    3.68878192218317    8.42403813407794
O         0.40777795114859    8.10957905439908   10.85909178886214
O         3.81065991346918    4.73105801397581   11.98632951438335
O         1.99082857748085    2.10232597222249    9.94468928282771
O         3.80874505087200    0.98145388306412    9.24235976350829
N         1.36053423168016    6.30921395069942    9.87345245474633
N         3.02018754662436    4.42855618881576    9.86867131138870
C         0.46380720647002    7.89711456970229    7.42670093527439
H         1.36392881700662    8.45201333874418    7.70014604072879
H        -0.09820651158522    8.47502531699356    6.68674911247451
C        -0.37662916236366    7.61119838367723    8.67262041412387
H        -1.00703817721790    8.46763957668557    8.91788866268923
H        -1.02167867370894    6.74089669851518    8.50756215164976
C         0.49873842031801    7.36159120856551    9.90046497123167
C         2.03125586191772    6.13457260005027   11.15725123647437
H         1.29816275778786    5.90483328611842   11.94000000401741
H         2.52747542991172    7.06668410287240   11.45289555732410
C         3.04875659424194    5.01807619270058   11.08142148348843
C         3.96112641047983    3.36149486584086    9.61901320861689
H         4.68743154989532    3.32762929506903   10.44627846813203
C         4.65797449358150    3.60992249344286    8.28704752392585
H         5.00548418572650    2.67781559748116    7.84296267412197
H         5.48720615930795    4.31066728532320    8.38601319609896
C         3.25957006080295    1.99899239114680    9.57424761735207
C         1.19801800321815    0.92104996884997    9.92207330585789
H         0.47233480622152    1.01529904773826   10.72673287294460
H         1.83139425527103    0.04368311503083   10.06525752084795
H         0.68452201019509    0.85465326682922    8.96170330368420
C        -0.65525875594800    5.81719964958832    5.87424922399971
C        -1.47129542290348    4.79224362517064    6.33126484276819
H        -1.16109111516707    4.20939551576522    7.18971685325188
C        -2.66225840949385    4.51486987536492    5.68106624190635
H        -3.29487063624875    3.71701149994345    6.03909438590334
C        -3.03723369895345    5.25681533288005    4.57395133278490
H        -3.96444905624352    5.03913016862670    4.06567389017445
C        -2.22020735967261    6.27773284616510    4.11209912503449
H        -2.51074823337167    6.85317946429853    3.24587699006500
C        -1.03190284901974    6.56140958914873    4.75745852391974
H        -0.38971844819471    7.35188991539958    4.39296786407902
C         2.02365356845877    6.54642796122175    5.32865442804135
C         2.10969896023995    5.54217420946897    4.36487179882390
H         1.49341900161450    4.65957593745040    4.46770521223472
C         2.97911067044663    5.67664812160482    3.30082592706898
H         3.04440525830493    4.89723475215636    2.55696310927660
C         3.77280911338741    6.80844994385481    3.19357289614790
H         4.45521452488961    6.91251412020460    2.36352039727184
C         3.69793921120821    7.80252141635432    4.15444756482017
H         4.32142836334508    8.68053583476818    4.07369765514906
C         2.83087467174909    7.67342579801310    5.22575910615533
H         2.78789428787693    8.44980954404085    5.97538398694653

