46
CSD_code = MUYDIV | q = 0 | S = 0 | Stoichiometry = C22H20AuF2N | MND = 4
Au        3.58514195708495    4.71262030629200    0.35023900323496
F         8.13837583581464    6.04419068967985   -2.39348201554102
F        -1.07183536459598    5.35165477439373    3.19257110147298
N         3.68296037357860    2.72870939406689    0.27643466420800
C         5.31752366079737    4.51861004337516   -0.70134219944933
C         6.17998740232612    5.47272317461107   -1.21291915497377
H         5.97971564732313    6.52473259795720   -1.07961721084895
C         7.31667012458476    5.09099232036790   -1.90570517019947
C         7.64095656057586    3.76303724644689   -2.11613950265875
H         8.53553377040653    3.50520373743986   -2.66076189464254
C         6.79486781189268    2.79472392754166   -1.61323619535105
H         7.03707286558797    1.75419269805315   -1.77000302712688
C         5.64529502213927    3.15591988717244   -0.91349545429471
C         4.71596135479948    2.17404060300110   -0.35985952120144
C         4.80240784801771    0.78630188649941   -0.43112470845770
H         5.63454281683912    0.33958214234430   -0.94482908838333
C         3.81798514970388   -0.00176787445947    0.15811949811968
C         2.76245114975317    0.63723257416518    0.81013194861756
H         1.98215696815117    0.06165980295946    1.27840860816063
C         2.70959644862107    2.02461365344113    0.85942324133772
C         1.69163509892202    2.86356208691997    1.48713753978865
C         0.59006242653828    2.33106902143075    2.15366749873240
H         0.45758308019316    1.26182641882139    2.22548155818475
C        -0.34822763857669    3.16225748591389    2.73225143163749
H        -1.20814981316915    2.77075165271011    3.25239610248169
C        -0.16142813069011    4.52851544305266    2.63076999878853
C         0.92625531993677    5.07807197742176    1.97332358474166
H         1.01234253825563    6.15320367154045    1.93144455635174
C         1.87995892595282    4.26544475994382    1.38446323020913
C         3.85340643671790   -1.51926397814943    0.11713807298666
C         5.06585514226826   -2.06190048852085   -0.64362962422539
H         5.06052075612539   -1.73061074136973   -1.67966058014442
H         5.03447735149011   -3.14915400730245   -0.64108730773666
H         5.99650016583399   -1.75452415013789   -0.17193119438676
C         3.91003481858117   -2.05035509263900    1.55680182079868
H         4.79912605754017   -1.67840202012820    2.06196415218269
H         3.94802362374449   -3.13710909937712    1.54873738949423
H         3.03927788282600   -1.74564288896843    2.13055922809493
C         2.58213941687537   -2.02632898346657   -0.57898759934804
H         1.68535405496967   -1.72948815172483   -0.04243038911380
H         2.59968326262691   -3.11220321104187   -0.63492536078045
H         2.52173283668243   -1.63036625387535   -1.59072981064524
C         3.53803760966036    6.71354944557542    0.38837341400551
H         3.56706696116875    7.12246456066648   -0.61752557477034
H         4.39790351536828    7.11079102668146    0.92036995413150
H         2.65376089675659    7.11746793067482    0.86831498651718

