17
CSD_code = MUYQUS | q = 0 | S = 0 | Stoichiometry = C6H5AuCl2N2O | MND = 4
Au        2.28175345319431    0.13630659634960    7.75231755392524
Cl        2.33075061629575    0.98779559192036    5.70492059369823
Cl        3.69596159485237   -1.50227741049809    7.18553739233033
N         1.03685859620667    1.50556499334615    8.41304561672277
C         1.64783565047750   -1.06757947038886   12.34169923647702
O        -0.10870447044159    2.20923592057296   10.24635450050794
N         2.10380201710413   -0.49435713930160    9.69112519052944
C         2.70173667584834   -1.54037822539728   10.24844049361602
C         1.03155581443904    0.02009097818117   11.74460605098472
C         0.65127517910077    1.44402416847568    9.69161896223621
C         1.28423322998103    0.27949568471865   10.40685295214150
C         2.49620118448283   -1.85922593427243   11.57936900533632
H         0.64337416512856    2.27112236008766    7.88108966826334
H         3.34984245643495   -2.11738817520617    9.60203739818392
H         2.99605859927667   -2.71468754402778   12.00430633142572
H         1.47147377037212   -1.29528544770656   13.38193432134520
H         0.35989146724641    0.68034305314631   12.27174473227704

