97
CSD_code = MUYREF | q = 1 | S = 0 | Stoichiometry = C48H41BrN2O2P2Re(1+) | MND = 6
Re       -0.98541771277942    4.29852275290296    5.23471592873422
Br       -1.80829353609591    6.29911536280939    6.45707469111806
P        -0.68795254092416    3.13060689544861    7.41012538512504
P        -0.82625926004468    5.66778307752616    3.16523432779389
O         0.89774622142439    4.67616599346620    5.39294248278737
O        -2.46531562893224    1.25835365556113    3.55578330086572
H        -2.59074625909544    0.42233397141018    3.08595424268877
N         0.10604661664358    2.50639845357060    4.12579174288500
H        -0.14324083743905    1.61255513009397    4.55433144135061
H        -0.18121389973791    2.45944098943890    3.14606317865576
N        -2.57385866226328    3.62373833049050    4.89524343570396
C         1.51774490642109    2.75810625463458    4.23775597674320
C         1.86778593657154    3.93780331692771    4.92794982946245
C         3.22142235258367    4.25532888411878    5.07888476261654
H         3.49507105456172    5.15723973854016    5.60612041758914
C         4.18300783038375    3.41671154742776    4.55565715344642
H         5.22539402005602    3.66837201662897    4.67623242785956
C         3.82853159586523    2.25955904184763    3.87993452002573
H         4.59051789831760    1.61262370636304    3.47624903540544
C         2.49237619214846    1.93085117722443    3.72108351859327
H         2.20572457821654    1.03107693001073    3.19565099529006
C         0.80312952699414    5.19652822864401    8.53455374933962
H         1.12083578413188    5.40955681867883    7.52336936557800
C        -3.70708017562703    3.00372476022984    4.58224970888203
C        -3.68334074532336    1.76903082874210    3.88423695944823
C        -4.87006038879514    1.13369286711405    3.56534663126163
H        -4.84197195434341    0.19277179376100    3.03252274204563
C        -6.08543063450611    1.69285916756516    3.92243737630141
H        -7.00053162309190    1.18391655702355    3.66510813585848
C        -6.12497779938776    2.90044704534318    4.60748961313830
H        -7.07400763818969    3.33120869409889    4.88411460285600
C        -4.95825779859443    3.54979153091570    4.93493212229644
H        -4.96662923667823    4.48753757323325    5.46749677203894
C         0.19411769274666    0.63835120464095    6.58648722527919
H        -0.84455434146000    0.47502202485735    6.32192411661808
C        -2.17060923512305    2.31719187100292    8.06735815022282
C        -3.38110192783322    2.99120323508226    7.92888494996460
H        -3.39767422366230    3.95440299876577    7.43782286503146
C        -4.54350561443003    2.43473605333715    8.42900116525637
H        -5.48028627087153    2.95891855204644    8.32003885625906
C        -4.50264697353978    1.20866634652267    9.07366131677957
H        -5.40945669123434    0.77207809227195    9.46310924841495
C        -3.29589612983139    0.54552518418426    9.23018537215488
H        -3.26169436916997   -0.40168418273447    9.74713433915386
C        -2.12804896564221    1.09526650862645    8.73211676885118
H        -1.18726650107176    0.58004459375763    8.86816331716567
C        -0.09142461735941    4.15859550294294    8.78365620780505
C        -0.51030621348670    3.90623859449068   10.08690933259005
H        -1.21449657887608    3.11206205562957   10.28745498469310
C        -0.02789900761342    4.68222038467654   11.12488244863249
H        -0.35579228616862    4.48509809708235   12.13411673030090
C         0.86499226652501    5.71112193827379   10.87358835671660
H         1.23303690952559    6.31697525342486   11.68715118540280
C         1.27911408744556    5.96839353521230    9.57716364755658
H         1.96767084523979    6.77567670263794    9.37820071811851
C         0.55686695482748    1.82286782773187    7.23101511080628
C         1.88449335057549    2.03267462997279    7.58727744156880
H         2.17051787813107    2.94721318389394    8.08795497736140
C         2.83658135820432    1.06812009168998    7.30737295083555
H         3.86543628554301    1.23560835491543    7.58629136811207
C         2.47265824686662   -0.10674929295631    6.67129245362417
H         3.21785160683296   -0.85618510102098    6.45449015204969
C         1.14955265389897   -0.32414679927991    6.31749212738845
H         0.86429629497181   -1.24546462433508    5.83107177621366
C        -2.35262281879363    5.79771400913966    2.19366324682388
C        -3.54433581055531    5.93940702922728    2.89972572136416
H        -3.51929934906367    5.95759442388090    3.98068655364249
C        -4.74025316067954    6.06938649524897    2.21879764596064
H        -5.66248481359410    6.17880779299194    2.76811677443120
C        -4.75159946206992    6.06453693638476    0.83296057578717
H        -5.68448304453591    6.16416000524540    0.29968439442007
C        -3.56444728483714    5.94348478260280    0.12826217980265
H        -3.57198445619923    5.95647139049338   -0.95124892802191
C        -2.36320421890729    5.81274538101917    0.80218585338038
H        -1.43827086467541    5.73256095193852    0.24807318194809
C         0.41332093495183    4.94828268867043    2.05217664111053
C         0.07379604303696    3.80927265693039    1.31908327830949
H        -0.95137211502750    3.45634662853662    1.33053613886142
C         1.03303654004627    3.15982654372923    0.56431949343212
H         0.76466602876463    2.28687549766684   -0.01246545801145
C         2.33810612624514    3.62826741711431    0.54809129106469
H         3.08674753363624    3.11596370733702   -0.03588349122332
C         2.67905890552500    4.75607514852651    1.27542292399388
H         3.69346648102914    5.12371362599306    1.25923871938696
C         1.72255057134148    5.41619480829871    2.02672849113508
H         1.99085128793315    6.29957346465185    2.58922845338984
C        -0.29977297720838    7.38917658708476    3.40688073111349
C        -0.82941943536154    8.40848229524768    2.62094900608688
H        -1.57540242691556    8.18610296500235    1.87210726718531
C        -0.40345600163016    9.71080596778519    2.80799662861690
H        -0.81793872615326   10.49915918939677    2.19841246040389
C         0.54289739584348   10.00596981963396    3.77543910077176
H         0.86641666951549   11.02507181646709    3.92077819897124
C         1.06753070481166    8.99468114259357    4.56328648953993
H         1.79802854789079    9.22410203126655    5.32430327850240
C         0.64790283150257    7.69080127667025    4.38223549316461
H         1.05009569681871    6.90748961348209    5.00982142772043

