90
CSD_code = MUYSUU | q = 0 | S = 0 | Stoichiometry = C45H41BrNiP2 | MND = 4
Ni        8.24231359739907    5.97721108374519   -4.93666867079819
Br        7.89947632641912    5.97784373014878   -7.20795602737109
P         7.36024611959471    4.00844085947149   -4.66492524542363
P         9.09048661633100    7.98004360356879   -4.95147114800999
C         8.65531437448520    5.92788986863885   -3.07789969093266
C         7.75031600061220    6.38669715418309   -2.12330385743290
C         8.09387967727371    6.33911078461913   -0.78152291798148
H         7.38648032156022    6.69762341956572   -0.04572511893990
C         9.32123441496533    5.84157500037291   -0.36845835587382
C        10.20851819187523    5.38505493495439   -1.32850964974091
H        11.17096775615160    4.98960594015281   -1.02973419066014
C         9.88961839257759    5.42284976394060   -2.68084490083503
C         6.41260091376332    6.93322844988951   -2.53233111528047
H         6.26215630903167    6.78399240823769   -3.60757728790325
H         6.35283480414751    8.00081687007697   -2.31887813411600
H         5.60781455713590    6.42965790586079   -1.99820002215828
C         9.66183039856737    5.79762625196073    1.09163780786074
H         9.54564971476615    6.78394034003448    1.53916402134494
H        10.68528290086742    5.46338211197892    1.24421058450773
H         8.99277290196863    5.11457724118062    1.61510279899013
C        10.87309298778501    4.91919073790878   -3.70293722336416
H        10.45528200246775    5.02036456529880   -4.71181390512058
H        11.10835823570933    3.86737850519233   -3.53590771796871
H        11.80599455394800    5.48286884177135   -3.66199214069074
C         6.83339359721634    3.50378358547304   -2.99138806038823
C         5.51517677598186    3.64431074521554   -2.57505438622730
H         4.76067355370109    3.97342776928379   -3.27662094523733
C         5.16306018901900    3.36139235546954   -1.26683171585158
H         4.13443048321516    3.47030772941220   -0.95359611325041
C         6.12326832654973    2.94662458358003   -0.36057531785499
H         5.84666900137864    2.73450081770498    0.66182589464682
C         7.43953163145679    2.80350169407076   -0.76919694531054
H         8.19397726464912    2.47918913531229   -0.06746572276180
C         7.79256449587717    3.08110175131138   -2.07442912849461
H         8.81985972659565    2.97096517427279   -2.39061986291885
C         8.39026724414048    2.59053566567568   -5.17481183656450
C         9.33459851526105    2.76905053968355   -6.17971391537642
H         9.45308479938552    3.73966867643689   -6.64020019887375
C        10.11162085195962    1.70888292864630   -6.61007609920308
H        10.84040218868653    1.86135345401200   -7.39222146827586
C         9.95244121888652    0.45735364803651   -6.04090740279221
H        10.55935761905914   -0.37224393163829   -6.37269238126606
C         9.00782150694431    0.26916586307665   -5.04458743002163
H         8.87501826320011   -0.70768746583064   -4.60192202096340
C         8.22808503979410    1.32615946337687   -4.61283167151344
H         7.49542413290814    1.16823925400503   -3.83340174841717
C         5.81765948870687    3.72905992239024   -5.60673947285086
C         4.99159729209485    4.82268359162903   -5.84391497573554
H         5.30365287553502    5.80719515425519   -5.51591418697712
C         3.79364369262661    4.66810117593608   -6.51375298594301
H         3.16272192273389    5.52531472222687   -6.69707444557384
C         3.41203672564567    3.41343961711059   -6.95856745350219
H         2.47970343728886    3.28827029611140   -7.48909655584173
C         4.23305616977541    2.32153685450223   -6.73274686798887
H         3.94142933450431    1.34379475479044   -7.08791758215176
C         5.43181017016670    2.47373331805477   -6.05893670931353
H         6.06970120712858    1.61725355898368   -5.89706240851511
C         9.19183865599819    8.91560530207235   -3.38648867903649
C        10.19929188620502    8.60341703579972   -2.47702592142056
H        10.95502062622841    7.88019677432893   -2.74749528228884
C        10.23873301964406    9.21157896598191   -1.23856085062940
H        11.02305541868359    8.95720805185957   -0.54086041071047
C         9.27105052747130   10.14022021966897   -0.89014004013496
H         9.29789109541923   10.61338498704627    0.08048269347986
C         8.27119133416444   10.46243146730271   -1.79099931298142
H         7.51796382027553   11.19096608714924   -1.52651668012060
C         8.22699346060341    9.85056724621276   -3.03185639013111
H         7.44062102107313   10.10529144373425   -3.72945694719848
C        10.79786789129651    8.12995370614812   -5.57683185491673
C        11.62087628960723    9.18984931241312   -5.20235691761272
H        11.26079100851467    9.93651856754294   -4.50801369649952
C        12.90138830738099    9.28844095609221   -5.71396621724902
H        13.53281763794417   10.11368773067707   -5.41724265732185
C        13.37423895829098    8.33748019507511   -6.60441677121551
H        14.37618608625853    8.41935322524811   -6.99947147033653
C        12.55771595320650    7.28802651245300   -6.98828211584805
H        12.91660751117340    6.54812499739588   -7.68819942363878
C        11.27623678944428    7.18548862527007   -6.47786643780667
H        10.63845510248012    6.37205643054709   -6.79382583607533
C         8.17634136968691    9.16189215575124   -6.00373746698435
C         8.79365687334742   10.18085163053158   -6.71662664789642
H         9.86815825129392   10.28860797404339   -6.69283378537817
C         8.03013503938848   11.05268893111353   -7.47305284417220
H         8.51593572443575   11.83945735756994   -8.03173989075884
C         6.65328831787363   10.91713730144729   -7.52316568233949
H         6.06445438480432   11.59801342029652   -8.11984685395603
C         6.03267666360017    9.89946097795904   -6.81754061078315
H         4.95978831459761    9.78262961068999   -6.86230660241934
C         6.79290892761823    9.02589558302837   -6.06555014059923
H         6.31606292020778    8.21408044202077   -5.52832402609256

