68
CSD_code = MUYTOP | q = 0 | S = 0 | Stoichiometry = C26H37CoIP3 | MND = 6
I         5.74470141374966   14.52548163738649   -6.53165583982020
Co        6.35129164452257   17.05015949408435   -6.88891883986787
P         6.67299142008482   17.42264747379917   -4.61293195209832
P         8.41763903364895   16.26978246272081   -7.23804581599256
P         4.22911742660663   17.61982201388138   -6.90970853805670
C         6.78624056701537   18.98383899275306   -7.14468338334211
H         7.30832521082166   19.36282375370936   -6.25471576626450
H         7.49144347548714   19.12293511155621   -7.97210047872449
C         5.61481189712442   19.87321846225456   -7.39779459481469
C         5.79622184405557   21.21721784645336   -7.72044131214966
H         6.79859033836413   21.62186797942763   -7.76946657765931
C         4.71258884715421   22.03166093533915   -7.98458136873596
H         4.86984968158705   23.07170113555759   -8.23278604377286
C         3.42339922974889   21.51814416271689   -7.95087665368708
H         2.58038111174341   22.15399108616098   -8.17928436266140
C         3.22171437793232   20.18934544484022   -7.63319101164525
H         2.22204488474018   19.77454985533584   -7.63052179527285
C         4.31378690043222   19.37567785131169   -7.33995394211385
C         3.06456562263381   16.93622747112752   -8.14416873152117
C         2.43174650318708   15.71849145379117   -7.91215682493127
H         2.60917920038757   15.17387288823376   -6.99926335013406
C         1.58183732331037   15.17797563378577   -8.85959249497587
H         1.10496870418853   14.22896920314624   -8.66483092488920
C         1.35059140092219   15.84246384660280  -10.05141522450222
H         0.68740420118579   15.41934024306273  -10.79153814415487
C         1.98130154494203   17.05098184227970  -10.29330941375292
H         1.81311885384605   17.57488694024835  -11.22354139281524
C         2.83568308932996   17.59303014192413   -9.35132012921505
H         3.32320846735093   18.53416874893597   -9.56452737448911
C         3.14067838842802   17.57174868033637   -5.42858529840380
C         2.95325369249142   16.36673207296034   -4.75343931916819
H         3.46310348755220   15.47318630116713   -5.07961483111391
C         2.13352792905044   16.29920605832366   -3.64099123063434
H         2.00029166347769   15.35370823495229   -3.13578247439915
C         1.49320457050648   17.43452104410268   -3.17559775093028
H         0.85022082092760   17.38248206196180   -2.30937698715645
C         1.69643548066935   18.64267462620231   -3.82070954918101
H         1.21794096735722   19.54003908774150   -3.45480704305151
C         2.51663924313937   18.71423879202852   -4.93235751350745
H         2.68327628168516   19.67405177316399   -5.39741124432511
C         6.13156029860674   17.05050630520516   -8.88503553761445
H         5.44128958221185   17.81960480445136   -9.23836908280749
H         5.74909065474477   16.08640678740352   -9.22523278546382
H         7.07293662073532   17.24251424810484   -9.40547925534342
C         6.37330889279951   16.11738673555886   -3.35807972103862
H         6.56451211392686   16.50715668568579   -2.35804713601652
H         7.00365227945550   15.24990375515449   -3.54607864927561
H         5.33435126788710   15.79850553735668   -3.43247086827799
C         5.69145196043014   18.76907202806267   -3.83212364543542
H         6.18980948072325   19.10362307380301   -2.92215588334078
H         4.70053257456427   18.39970089778019   -3.57977064577363
H         5.58690225899355   19.60958819450495   -4.51697897780646
C         8.33065072057510   18.02446510226674   -4.06017313068931
H         8.37568058983710   17.99879798507293   -2.97128539336995
H         8.46518873358566   19.05280965393736   -4.39361826120598
H         9.13835669670447   17.42104623158224   -4.46541107135561
C         9.78491569603630   17.47634937167833   -7.49779713862113
H        10.72919329446409   16.94897267145868   -7.63263735095889
H         9.86388598196604   18.15943678224228   -6.65489913126439
H         9.57201371649636   18.05631879701484   -8.39455266915236
C         8.72578982585967   15.20535421533338   -8.69890078494627
H         9.72211259043890   14.77132955239664   -8.60478216027498
H         8.66931297771081   15.78092662386146   -9.61993741452410
H         7.98575255391035   14.40769054134950   -8.73151024535458
C         9.16520881312399   15.14547173503095   -5.98314230397054
H        10.25252256154367   15.20865912903234   -6.02955997872652
H         8.84877148520836   14.12858222902920   -6.21127804305432
H         8.82942903606161   15.38165748025850   -4.97629721039955

