78
CSD_code = MUYTAD | q = 0 | S = 0 | Stoichiometry = C24H50NiOP2 | MND = 4
Ni        0.09211100644284    6.39223893880235   11.00847742442550
P         2.06499853644231    5.37396023125583   11.24725175543316
P        -0.18313314213718    5.70625860508906    8.93375026497249
O        -0.26705787390278    7.27094372591261   12.57852572702530
C        -1.25854516685958    7.55352848337728   11.84235460691795
C        -1.38753058051223    8.94572696183113   11.22187775465085
H        -1.99950209354668    8.90463732983050   10.31838290173559
H        -0.39856772091012    9.33815665093124   10.96770712393542
C        -2.06171012198624    9.86599386854336   12.24479425494849
H        -1.43099493497015    9.92773547551411   13.13454019892691
H        -2.16103104644813   10.87179105368155   11.82767512048062
C        -3.43129870533534    9.31713227603589   12.63074582321065
H        -4.07475442170858    9.28951055748789   11.74669520488467
H        -3.90184524852317    9.97457626274837   13.36605803688431
C        -3.29548757028262    7.91068052001748   13.20489375577976
H        -4.27849854953831    7.51809626994536   13.47893367054836
H        -2.68051274529757    7.94539807614201   14.10708333827842
C        -2.63101152719457    6.97399354809400   12.18962899073898
H        -2.51582030599835    5.98134430254333   12.63210177182077
H        -3.26455181486949    6.89787415391187   11.30427991568592
C         2.40344207779778    3.83009622376748   12.29856316995436
C         1.61677710720318    2.68511208912135   11.65675585115854
H         0.58537505336352    2.99340419584627   11.50188656489199
H         1.61481926330527    1.81821484248073   12.31737273781550
H         2.05075968042300    2.37773356226659   10.70791037942013
C         1.78193836095507    4.09877869052297   13.67196613964119
H         2.38795621277239    4.77617590575113   14.26474557954857
H         1.67171423576379    3.16896914911919   14.22913683167550
H         0.79680178945089    4.54970930607457   13.54802941810338
C         3.86332235934987    3.41441402952786   12.43555285142542
H         4.34949887760501    3.34445156025186   11.46461100581240
H         3.91702185626834    2.43406535595653   12.90966257064293
H         4.41756596708393    4.11067617797242   13.05811831057394
C         3.40438936076651    6.67907387555062   11.56775829145148
C         3.34448652332391    7.04788752113240   13.04973923983288
H         2.30604228586364    7.19637860652174   13.34457426106626
H         3.89102732317423    7.97327125226720   13.23060856403130
H         3.78810968208031    6.27549525171389   13.67249806225434
C         4.83497651118805    6.34541766848409   11.15096072313809
H         5.29026106289103    5.61234380974226   11.80817951476305
H         5.43695341968162    7.25314138809349   11.20037103219793
H         4.88218292239659    5.96986028797585   10.13138036422693
C         2.92098110682083    7.89647746008398   10.76745768269334
H         3.19229480680987    7.81381550867650    9.71721847011197
H         3.36496674865857    8.81254286817226   11.15425710340780
H         1.82724033171075    7.98361011550823   10.85236842734422
C         2.46727094481233    4.83193503157756    9.50834571802614
H         2.95472816625179    5.67564051106068    9.02095359135405
H         3.16687267871416    3.99214099346384    9.50784527053511
C         1.19770714459105    4.46014991550391    8.73405528653523
H         0.81094798103361    3.52279113283580    9.13351222511915
H         1.42918438639232    4.30616235367116    7.67670290019532
C        -0.02489734679376    6.73767866446905    7.34197949855476
C         1.42517043496271    7.22052003848867    7.27071093658299
H         1.71192635815663    7.65923123680442    8.22350472683467
H         1.52442935859147    7.98659577177186    6.50187181419352
H         2.10865877666160    6.41195420397715    7.02361386096292
C        -0.37147991180557    6.02008143501394    6.04192093946670
H         0.15004833964369    5.06935099449034    5.95816986621120
H        -0.07098524710919    6.64127036580095    5.19779824650600
H        -1.44009649321715    5.84567047352629    5.95579470083054
C        -0.90414464944378    7.97776494843498    7.51253007418929
H        -1.96012104600735    7.72695869466060    7.53713425903904
H        -0.74097980832442    8.67213619199946    6.68865072398701
H        -0.64619243393245    8.48121146190774    8.44251282772093
C        -1.69502597657759    4.55811404668616    8.79330300294019
C        -1.67288033315839    3.45723915513793    7.73391975972385
H        -1.78385233188248    3.85368848711437    6.73051719861410
H        -2.50935834002455    2.78211896295996    7.91665219918688
H        -0.75930989763602    2.86993598634252    7.77277971449840
C        -2.93752220333416    5.42728342258610    8.59827701471029
H        -2.90753231351442    6.27505029413005    9.28038171936670
H        -3.83962112678063    4.85120001194519    8.80378729341268
H        -3.00762004532350    5.79752759692482    7.57852390265615
C        -1.77238045261279    3.90344666350192   10.18167205573861
H        -1.15338271636257    3.01017333082150   10.22718090537832
H        -2.79407646774093    3.61122283601335   10.41867171134766
H        -1.42854632803890    4.60826079244532   10.95498526640742

