79
CSD_code = MUYTAB | q = 0 | S = 0 | Stoichiometry = C29H45CoP4 | MND = 5
Co        1.36850523419682    2.26427267274886    3.39455342237257
P         1.11100050086862    1.90466771227398    5.70669852815221
P        -0.36745000123556    3.37419152169230    2.55985887007061
P         2.78949505612821    0.91829461519884    2.32048428538503
P         2.70849421227080    3.99345512752347    3.66698018217283
C         0.16384892211465    0.53754189768301    4.97740410624557
C         0.22947945080338    0.73876121292045    3.59035875749546
C        -0.43844456813103   -0.16910129083005    2.77620054547992
H        -0.41533050690784   -0.06971244161648    1.69799263019678
C        -1.14253750911431   -1.22233935848841    3.33864525949344
H        -1.66923500647065   -1.91796707115129    2.69665225257308
C        -1.17304055447601   -1.40623411675794    4.70990994283331
H        -1.72115047089395   -2.23994006780494    5.12869208214018
C        -0.50632140522849   -0.53259413797179    5.56217691175495
C        -0.50213694430635   -0.78561978272980    7.04253758401592
H        -0.18867036644986    0.11614492023081    7.57078418379310
H        -1.51266032832174   -1.04178913804553    7.37476685120547
C         0.44615770770544   -1.93195600140409    7.39444745249303
H         0.13718047418057   -2.84901267616359    6.89718625999801
H         0.45393003824111   -2.10393420102294    8.46896621837260
H         1.45883753909744   -1.69399358897283    7.07640873572614
C         2.28698248854783    1.05164037602245    6.81418601252855
C         2.27051726763521    1.05431979499296    8.20405718230709
H         1.50352454351820    1.59345890641860    8.74239626716933
C         3.23505640268997    0.35383487524681    8.90705679506920
H         3.21351647183312    0.35501664061316    9.98785758448772
C         4.22144523341291   -0.35174053145782    8.23846264937437
H         4.96792938220435   -0.89901101867707    8.79572772985650
C         4.24965442779110   -0.35040082738678    6.85211303326019
H         5.02052490997469   -0.89688738371615    6.32616259741364
C         3.29312969696171    0.35436865939114    6.15026775644868
H         3.30031872464075    0.38545543669849    5.06609549497151
C        -0.01510885996517    2.72480209129871    6.87951843802656
C        -1.38964000774539    2.50918768830707    6.87270055611067
H        -1.80402114601398    1.75045895765200    6.22294507476957
C        -2.21680930548042    3.25001933963663    7.69657614031763
H        -3.28258059687306    3.06881369608348    7.69155227370190
C        -1.68596548341559    4.22237888168697    8.52861052571812
H        -2.33436520133623    4.79867958188997    9.17250462997110
C        -0.31994985155033    4.45821872714022    8.52852594824576
H         0.09723472083811    5.22109739609171    9.17121620637560
C         0.50755674641634    3.72210270264560    7.70299862915942
H         1.57487231674985    3.90917545628492    7.69597713930669
C        -1.46439940839177    4.19611890892242    3.78481370016084
H        -2.23167008183711    4.78668774001328    3.28466464255046
H        -0.88179320607723    4.83155079275843    4.44705638081550
H        -1.93312759716609    3.42059932598566    4.38725920049338
C        -0.09136890484574    4.77780736779094    1.39262579535652
H         0.44215586714990    4.40335252249963    0.52021741889707
H         0.51422800183111    5.54583859516283    1.86687551562690
H        -1.04052917510123    5.21027565405648    1.07766628914672
C        -1.67738685755942    2.52533471744468    1.58892933241957
H        -2.45713039654642    3.23321501464289    1.30885785114456
H        -2.10621113896153    1.72539135061426    2.18779585716240
H        -1.24073236480964    2.09556333913106    0.68975342337241
C         2.48518798201001    1.12347676539075    0.51855028386986
H         2.69040647647473    2.15705998788203    0.24497431309567
H         1.43565510774040    0.91793770236063    0.32241534986321
H         3.11065232365115    0.45251027553066   -0.06970997809810
C         4.63371490762932    1.06287532304406    2.29385850138276
H         5.05067495147108    0.41488302901950    1.52333280813721
H         5.03750508196187    0.76900517834473    3.26154673787243
H         4.92375571035027    2.09113557867930    2.09074886215630
C         2.71163888157623   -0.91757271190782    2.42297554241643
H         1.69289337633146   -1.24752426279102    2.23950890659017
H         2.99680421003111   -1.24248983007211    3.42203490733040
H         3.38322604620757   -1.36431649539372    1.69012047687717
C         4.12399026193158    3.67944049962658    4.79736969986156
H         4.70186032372424    4.59014753614249    4.95517106681013
H         4.76772722105626    2.90589924337269    4.38795319696087
H         3.72793662492303    3.32516968417400    5.74851953529304
C         3.59452840107445    4.90485044243560    2.32905188109305
H         2.87211281207951    5.31528538546930    1.62680701307153
H         4.24195466423526    4.21845415960237    1.78707546340745
H         4.19404876866756    5.71323790792285    2.74670533646892
C         2.00100019427102    5.43164324440748    4.57036627351080
H         2.78626186346804    6.13556196171941    4.84633454242256
H         1.50769077718461    5.06360444827251    5.46892562461053
H         1.26286393934936    5.93946436356683    3.95343452129476

