80
CSD_code = MUYTEH | q = 0 | S = 0 | Stoichiometry = C25H50NiO2P2 | MND = 4
Ni        1.11083201501855    6.11612345262555   11.14966383766276
P         0.25930638025000    6.32594225687263   13.23671541205246
P         3.09684338895049    6.94910167808520   11.82134913887729
O         3.10630602828989    6.21936621984748    7.93844644472183
O        -0.41209915550635    5.31314855200349   10.57185437484673
C         2.22489188060040    5.53281808812913    8.45632811182452
C         1.11129922974616    6.11704870902474    9.16496048842689
H         1.00651764825200    7.19189610763670    8.95533251724014
C        -0.24099277746815    5.38875974778872    9.19228266180653
C        -0.18409307380286    3.98481619958000    8.57003701500119
H        -1.04466142463574    3.41982877284353    8.93400368598835
H        -0.24656313071895    4.06091186287788    7.48294943497364
C         1.11551182771033    3.30396204281586    8.97261619033257
H         1.10854343129880    2.24813953464162    8.69282652327533
H         1.20868692108043    3.36506754777759   10.06286348780557
C         2.27656704587080    4.01910425917131    8.30170112483122
H         3.23804948796135    3.66759967871833    8.68448039741233
H         2.27215300627176    3.81673304455736    7.22653428021713
C        -1.35595592281055    6.20867577479152    8.52829285272185
H        -2.30036819490678    5.67445026666257    8.60809042273560
H        -1.12553838442175    6.37526413258741    7.47888024245294
H        -1.46123698671659    7.17013434149679    9.02708505697983
C        -0.10130554073056    4.84134614693071   14.36190357216402
C         1.25555320179305    4.20584288290008   14.67224193703882
H         1.79278611822134    4.02339622719881   13.74382395193853
H         1.11276519309091    3.24829847198242   15.17239587124336
H         1.85641060154069    4.83356756488403   15.32722237003993
C        -0.81124886661901    5.15795210140222   15.67379086642357
H        -0.31413056098237    5.95992158720262   16.21630001147808
H        -0.80380241553466    4.27089472055617   16.30730189082046
H        -1.84882474310915    5.43306083152693   15.50923725676430
C        -0.90501363081835    3.83314019820313   13.53500949332442
H        -1.95689714243677    4.09425584946165   13.49003137427691
H        -0.82556314161654    2.83836172839242   13.97170615305812
H        -0.52471737445659    3.79995083714819   12.51438901484135
C        -1.24848259396309    7.47685883522667   13.19382932612417
C        -0.90813448848261    8.51177340377041   12.11375856874066
H        -0.23656952271118    9.27794609152195   12.49549054539519
H        -1.81165378271440    9.00950125922896   11.76465217533794
H        -0.43969642547913    8.01336408183218   11.25444357144925
C        -1.58111115223649    8.21186748409409   14.49169781809344
H        -1.96121723589135    7.54225834272957   15.25541974108271
H        -2.35542229914406    8.95068612155147   14.28490949145831
H        -0.71979000075565    8.73955755652038   14.89473207284616
C        -2.45320113368330    6.67111824384195   12.70881673534224
H        -2.16129640117591    6.06066004792575   11.85511598386247
H        -3.25319123336293    7.34381532554222   12.40090182249069
H        -2.84634325809663    6.03104546227697   13.49380855957997
C         1.50826781510773    7.34491024682506   14.16684904658379
H         1.27187868772478    8.39118027427044   13.97378487160194
H         1.43261045621591    7.17657636704062   15.24445262081417
C         2.92661596937400    7.03753777443102   13.68322627110237
H         3.20809462529494    6.05149345578036   14.05169692934894
H         3.63549246121898    7.76196576426608   14.09273141179527
C         3.71923544568166    8.68870405848005   11.37888998874576
C         5.10996547178693    9.04322017393934   11.89793193224258
H         5.20007220050448    8.87105501130129   12.96886658415056
H         5.29374894042036   10.10245910981596   11.71767082666397
H         5.88514539892820    8.48587097189305   11.38160760687685
C         2.71300676684063    9.68312891002587   11.96349320893468
H         1.70303133679971    9.39505096674719   11.68086981677009
H         2.90321149480099   10.67764746446916   11.56109605375486
H         2.78602007637929    9.74499457903422   13.04736943704757
C         3.67137373160121    8.83310670652903    9.85766578794591
H         4.31445199536059    8.12330636447665    9.34998247755464
H         3.97588727234810    9.83885445526785    9.56989472401103
H         2.65882022185860    8.66732616666498    9.49764684720717
C         4.53743702146357    5.70875194914936   11.68462948253483
C         5.61905814213812    5.79326001043641   12.76488353615141
H         6.14913324237982    6.73908817683668   12.73811971540306
H         6.34567934537183    5.00158752406283   12.58201371772726
H         5.22586100077483    5.64670620241873   13.76746342309273
C         3.85363337122974    4.33716859373673   11.78038780166655
H         4.47721032943738    3.56184279687984   11.33859341553994
H         2.89490549844252    4.35105954617040   11.24576087020575
H         3.67128090134876    4.06096800091341   12.81715202063807
C         5.21557728309570    5.82355157844122   10.31834883048540
H         4.49249324614677    5.86773156665484    9.50972460973859
H         5.85389890755486    4.95519661559261   10.15404040208294
H         5.84879993140792    6.70476494306820   10.26223185418375

