106
CSD_code = MUYXUA | q = 0 | S = 0 | Stoichiometry = C48H48IrN9 | MND = 6
Ir        2.35041503874996    0.80598037968616    1.63418950526503
N         3.72138547566684    2.25326318940496    2.25868024964751
N         2.20683543066334    2.16212007565196    0.19199661488017
N         1.42006009109969    2.24034427782721   -0.83886776542521
N         0.84302846093411    1.54822366692198    2.81885306166211
N         2.49264566124829   -0.37282247524492    3.21980561672736
N         3.38713769621532   -1.24000468538621    3.59990777911098
N         3.61523931611794   -0.25250777855973    0.40895304791394
N         1.13585496498162   -0.51972962394334    0.89108399221162
N        -0.09017492015180   -0.79569030747455    1.20930331872595
C         4.45516164055087    2.15890302423586    3.38108313397741
H         4.28085865761187    1.27996692687579    3.98440204479012
C         5.36887958756228    3.09795236887949    3.75499849387212
H         5.91874299158810    2.99716811586893    4.67704946184599
C         5.61256374719103    4.19917942055805    2.90436911228533
C         6.57582637252154    5.17749846729578    3.21359462759062
H         7.11472530333429    5.09326192282015    4.14613454327512
C         6.83026005312437    6.20401517896827    2.34613977455842
H         7.56997973506576    6.95317744375012    2.58665309660720
C         6.14275373588349    6.27402234935562    1.12869113918283
H         6.37034482375453    7.06981464624464    0.43514256466054
C         5.19191552431818    5.34080465092284    0.80909229822685
H         4.69406182888081    5.39720528650946   -0.14157835922151
C         4.87772917292308    4.29222250819088    1.69291843009403
C         3.88198023836092    3.29774565241380    1.42531921356066
C         2.98982514287341    3.27906844571693    0.30412114817865
C         2.62448049844105    4.12224862779418   -0.76141561150985
H         2.97937137759738    5.10354732235586   -0.99603131805028
C         1.64069279438294    3.42197826731826   -1.44579707210807
C         0.84470606307902    3.79932255128595   -2.66158952477277
C         0.96927730032868    2.67073124883948   -3.69133947550690
H         2.00217264821155    2.56687499660484   -4.01845720081839
H         0.34792543334102    2.87762631564561   -4.56044324976495
H         0.65499431795067    1.73274189576850   -3.24200107820243
C        -0.62446839616458    3.94496527627410   -2.24430118466707
H        -0.96736224556983    3.02056077654087   -1.78696092443594
H        -1.24584929173182    4.16582565147251   -3.10991583138861
H        -0.73677259323318    4.75154204324463   -1.52174635888980
C         1.34543879282867    5.11201175672821   -3.26512097090673
H         2.39522068804066    5.03267914414067   -3.54054633389271
H         1.23019756539856    5.93162775877242   -2.55880391694541
H         0.77370753943080    5.35045985091823   -4.15976224973945
C         0.03959060735482    2.57060466948351    2.47824040770777
H         0.36883449138498    3.18041066630396    1.64990237386593
C        -1.12331528473330    2.85285144661398    3.13038634366881
H        -1.72327071944707    3.70158728396611    2.84275602064343
C        -1.56459519567770    1.99444293446073    4.16118709321675
C        -2.79623692260823    2.17740259706575    4.81692400098457
H        -3.40662443507608    3.02616467804626    4.54467763890830
C        -3.21789298224759    1.28641265610021    5.76560501540033
H        -4.16555163238305    1.42715318928471    6.26431347159672
C        -2.43177899043662    0.16996947909628    6.07744093970337
H        -2.79156859951198   -0.54638247006397    6.80106317694302
C        -1.22110546178086   -0.02255495538369    5.46638836814273
H        -0.64132106822366   -0.90097264525226    5.68907495666667
C        -0.74055177792349    0.89525985121065    4.51416378197050
C         0.50857984840461    0.74088630427536    3.84060809324568
C         1.50328988736181   -0.24267619665812    4.14843400608355
C         1.83517937047334   -1.10382993833799    5.20732067471631
H         1.32567371695453   -1.24140022466726    6.13809533741085
C         3.02418160886724   -1.70379847302231    4.81141947170890
C         3.88350518041837   -2.71436566658618    5.51558088063111
C         5.27437295658774   -2.10393908574244    5.72892175545384
H         5.21026258894486   -1.22874730335512    6.37321759773053
H         5.69088547815081   -1.80036905390590    4.77202004713901
H         5.94110038726676   -2.82798420809478    6.19307790879376
C         4.00413050556205   -3.95255737855519    4.61942337146738
H         3.02696615152745   -4.40674577639572    4.46821510830819
H         4.66463717292013   -4.68925697718154    5.07269113756645
H         4.40197040933089   -3.66484367385679    3.64993187825108
C         3.27899421179340   -3.10734734892167    6.86377661848914
H         2.28971271224850   -3.53945897990526    6.72957975304215
H         3.19614219898732   -2.24116394297302    7.51703599353494
H         3.91150227379277   -3.84560592027853    7.35286520789154
C         4.93790698887488   -0.04190442921048    0.30065723557813
H         5.35344646631575    0.71990521333220    0.94486763441023
C         5.73995402723289   -0.74609939709233   -0.54642595826345
H         6.80219024155952   -0.56288510515888   -0.57945687729427
C         5.16196154047793   -1.70622135027717   -1.40661720550554
C         5.92250805595448   -2.42490257095580   -2.34725738736380
H         6.98810872391995   -2.25257451434868   -2.39112472699303
C         5.32029243434290   -3.31375071016229   -3.19559514874873
H         5.90674533774482   -3.86360696881159   -3.91681590307595
C         3.93320345289030   -3.49842719516520   -3.14589571130400
H         3.46343211023258   -4.17793469056130   -3.84131433408969
C         3.17152230247356   -2.82073008746119   -2.23056119530169
H         2.10415680922971   -2.94915738206907   -2.22191739019148
C         3.76308958354710   -1.92670991108076   -1.31942837717596
C         3.01958199058566   -1.20533908585311   -0.33380026778890
C         1.63933885102181   -1.40555228607391   -0.01438479908355
C         0.60450410654475   -2.32159195120717   -0.27175229401551
H         0.61396526287891   -3.18841743320294   -0.89983890931812
C        -0.45418543796364   -1.89144060987851    0.52022220680928
C        -1.82093049644582   -2.49482177839241    0.67418235581867
C        -2.64348033219089   -1.64791628981802    1.64725378624568
H        -2.15396543406879   -1.60689472993049    2.61659934765080
H        -3.63889797405228   -2.07057522321994    1.76889037795379
H        -2.73168152555126   -0.63064442608289    1.27645051940945
C        -2.51663997875539   -2.53506392332132   -0.69158589373143
H        -3.51856314495180   -2.94823377380944   -0.59274961030107
H        -1.95684316391707   -3.15153616355335   -1.39105666088206
H        -2.59324396533235   -1.53147162112350   -1.10355835682000
C        -1.68059926026637   -3.91938220614235    1.22536423683925
H        -1.16268581674327   -3.90190642894046    2.18174654986593
H        -1.11286576121950   -4.54414894333573    0.53974590498036
H        -2.66209294603452   -4.36693617508215    1.36921457821526

