128
CSD_code = MUYZOW | q = 0 | S = 0 | Stoichiometry = C57H66ClN3Ti | MND = 5
C         4.53334450413446    7.91790482919665    7.31923110678357
H         4.55246602332782    8.22617464999194    6.25511991646280
C         4.53533934960899    9.20426983144316    8.11232565799812
C         3.85173359350429   10.30203469776595    7.60558846911739
H         3.34495535841940   10.22159735744876    6.65525900132997
C         3.81333005723614   11.50080596893618    8.29343609501755
H         3.27475263433079   12.34194720990780    7.88376897570332
C         4.48606604736146   11.61659369026744    9.49768512914673
H         4.48306977758661   12.55368159864382   10.03489533196505
C         5.17204771762523   10.53247730525170   10.00934772324343
H         5.71538026566875   10.65234922281156   10.93329090270597
C         5.19096050238427    9.30694450883124    9.34177829459892
C         5.96941870249410    8.17446564312571    9.84607403149773
C         6.43130898845557    8.13114284717231   11.16340085869239
H         6.09655552414738    8.87127117289892   11.87346936713274
C         7.30502494542582    7.14889477721904   11.58497669150250
H         7.64475988332862    7.13293909179544   12.61014827398954
C         7.76918750401163    6.20958296705108   10.67955423298183
H         8.49992960237464    5.47488957948294   10.98259146621043
C         7.28031275941149    6.20943487084528    9.38627505745982
H         7.63902035363489    5.48002197476220    8.67697566724251
C         6.33367777651563    7.14044119468119    8.97392097400678
C         5.76983743028811    7.02210058173197    7.56702115351521
H         6.58155145694132    7.34342410607647    6.89328070653668
C         2.13471853839268    7.84302083916464    7.36200234222311
C         1.43939877815377    8.36049866172238    8.47218205511294
C         0.34175468180595    9.18175817934708    8.26428769384471
H        -0.19139766063470    9.58515188181953    9.11174727651800
C        -0.06568908471929    9.51425181487072    6.98628735698740
H        -0.90040574317290   10.18417379709482    6.83875463895772
C         0.58796151332569    8.97192557090806    5.89634032867930
H         0.24605397408117    9.21579243768644    4.90118114120314
C         1.67692503301378    8.12720838333385    6.05846921835468
C         1.87135251649868    7.99799993073653    9.87401518860652
H         2.87485043755276    7.55972376289728    9.81151085038234
C         0.92466155749982    6.93359942172614   10.43601029860894
H        -0.08705686345254    7.32694238937433   10.51646736876166
H         1.25504570794116    6.61786210270724   11.42358610515855
H         0.91065603196516    6.06318442816413    9.78241559797861
C         1.92092386913151    9.20510482882520   10.81060374958546
H         2.46986791799800   10.02392657805449   10.35445402225539
H         2.41799201269406    8.92863008745971   11.73798288692770
H         0.92066985430013    9.55349282557104   11.05771092329418
C         2.33656649518028    7.51864079793812    4.83927295369752
H         3.14878530350726    6.85493855427664    5.17133046170592
C         2.91348944630866    8.59546038133684    3.91485957582036
H         2.12346092718460    9.23664940706558    3.52945198946949
H         3.41437230597066    8.12896071726742    3.06960008596411
H         3.63469984505940    9.22336341379532    4.43619538714879
C         1.34791737696080    6.64008845053366    4.06727504202497
H         0.96237343025120    5.85029644940193    4.70976890548083
H         1.85504218369550    6.17003055136710    3.22740836058662
H         0.51370730011178    7.22380387126611    3.68315412224980
C         6.31139167539867    4.83177869102333    6.61551207454613
C         6.82872948694505    5.17214881720121    5.34454547693395
C         7.82208395459352    4.38645329517159    4.77758982008894
H         8.23292303629642    4.66572807737652    3.81884505324152
C         8.28229041516667    3.24183510317668    5.39536223081158
H         9.05541895029696    2.64434733806953    4.93557943374697
C         7.71453431090762    2.85152905398544    6.59250381013913
H         8.03954095983613    1.93230683078519    7.05508925009097
C         6.75019851054227    3.62727760091645    7.21561259757380
C         6.26840405906861    6.30918726014321    4.51566878391447
H         5.42604636519274    6.75024185924337    5.05583142217546
C         5.70613876625470    5.76808217697715    3.19656022849089
H         6.48464288013380    5.31734789194194    2.58680717777091
H         5.25405429177597    6.57772376891803    2.62648112172442
H         4.94717513223180    5.01711829945761    3.40038908614362
C         7.31352654446794    7.39290671945072    4.23540121862425
H         7.75301445909738    7.77295095908509    5.15656016277673
H         6.85684868539000    8.22643590794732    3.70482498248784
H         8.11776574930234    6.99750110354661    3.61947584013576
C         6.14136348949471    3.15282381423624    8.51713680542503
H         5.68662200821536    4.01966072850454    9.01422208479145
C         5.02823627135870    2.15253944118612    8.19145063832276
H         4.32414829786284    2.61730401156748    7.49440967425622
H         4.50138039191500    1.85248040975880    9.09765161085897
H         5.44345020414904    1.26454039559943    7.71661887083141
C         7.15082074630598    2.53070249332463    9.48367214191353
H         7.47956602083552    1.55169645564951    9.14298256889393
H         6.68711044184389    2.40731262404255   10.46055587898440
H         8.02415472333527    3.16817105494830    9.59605196706504
C         3.33861142899580    4.74586554421388    9.43714819238345
C         4.07165743437062    5.15896786753173   10.55323035656394
H         4.81302605162007    5.93904051307854   10.44602732141057
C         3.89101881664567    4.61168639794400   11.81560072048101
H         4.48768132735710    4.96950860984346   12.64351897332033
C         2.95985710184757    3.60409681800904   12.02204913340234
H         2.83166812827223    3.16687645833102   13.00175397215247
C         2.19181397052717    3.17761710601548   10.96026779280480
H         1.44286081700582    2.40858904474939   11.10064661925157
C         2.36760551834740    3.75194428322979    9.69548183971983
C         1.48306762384958    3.35969073857799    8.62426591206620
H         0.81704658002040    2.50615259025335    8.80860764772047
C         0.52935782184911    3.57353930917636    6.53248175956754
C        -0.56292363286324    4.39468880944440    6.20345539773789
C        -1.39865502914951    4.01994279606380    5.16398389591337
H        -2.23905559602052    4.63962896790840    4.89780647080859
C        -1.17353134493537    2.85127708511512    4.46099086830469
H        -1.82261280558707    2.57816060162259    3.64225663140575
C        -0.14090538110117    2.01755605045965    4.83529523202375
H        -0.00144373217458    1.08417209516607    4.31231725039570
C         0.71241444551078    2.34200301471683    5.88217253744016
C         1.76104057822772    1.33398103508914    6.29523850018051
H         2.41253121614653    1.77974975270664    7.05309808416049
C         1.08011740929371    0.11107944152641    6.92101490831876
H         0.45111677022196    0.39788653621076    7.76229753836256
H         1.83040088522144   -0.59260468176810    7.27590910585319
H         0.45269482641480   -0.39379661319235    6.19028460404216
C         2.64854492812634    0.90382772816752    5.12623986908735
H         2.07945124428612    0.36928463380998    4.37022386298804
H         3.43732640277892    0.24658802244876    5.48726502845452
H         3.10723279573441    1.77529165390673    4.66792951916487
C        -0.86883211622345    5.59336519188297    7.07285295372860
H         0.08350449803936    6.06881698280747    7.35060688580784
C        -1.75634800606594    6.63466530086805    6.39610477951055
H        -1.35400656077519    6.92016520043642    5.42866158583685
H        -1.80841248101414    7.52366866133676    7.01933774716923
H        -2.76794487954866    6.25666238620057    6.26415791057190
C        -1.56430428635074    5.10881996819216    8.35208485881281
H        -2.48069850420205    4.57802117640010    8.09897435096139
H        -1.81798512900611    5.95741050686904    8.98319796748539
H        -0.92625241405040    4.43768972953968    8.92263270305690
Cl        3.47923603805237    4.20988637215094    5.46879907237782
N         3.32860573146638    7.12404776382282    7.56682597439628
N         5.38442890782262    5.64334710336728    7.28578998183884
N         1.41569558554929    4.02202794436667    7.53320466578565
Ti        3.55748774241922    5.30291112514575    7.43677599199510

