107
CSD_code = MUYZIR | q = 0 | S = 0 | Stoichiometry = C54H43N5O2P2Ru | MND = 6
Ru       -2.78875030367474   12.50663585420018   10.90607697628160
P        -2.31821913855045   14.40480970150638   12.14185993557599
P        -3.21812669541380   10.65778484490776    9.56794795824126
O        -6.03436555580434   13.03796829523775   10.64488534494027
C         1.46725805831864   13.50436363300475    5.99309323518881
H         1.80764167625573   13.87439418500333    5.03647060136332
O        -2.75984838763413   11.63503595483934   14.01799760674138
C         0.25879255650339   13.95438690497314    6.50879418964399
H        -0.35457218045253   14.66717006451594    5.98013172828893
N        -1.23165150605434   12.92389674769595    9.67860757009168
N        -2.28882351383545   14.45517724549774    8.18012656507142
N         0.36218481621699   11.33238050400820   10.49785815883696
N        -1.38939544748369   11.41421485097842   12.15732937304251
C        -0.46632564093613   17.33050153390608    9.88028995944278
H         0.52690099810460   17.57039411457388    9.52900466638027
C        -4.68648532374195   11.89561409626920    7.52593690414806
H        -3.78987054369889   12.46646507729669    7.33014925250647
N        -4.06662351994443   13.77778825060851    9.65650567053356
C        -4.25519512690333   15.63913214789261    8.12360422431555
H        -3.73776340143673   16.25992107923262    7.41196924550275
C        -3.50659009247709   15.20679160103829   13.28425469783848
C        -1.92102779224780   15.90208711145118   11.15864643306895
C         1.41526718693937   13.48814708638723   13.52893809621366
H         2.35826189645780   13.20251652389215   13.08624209132537
C        -6.16498947741165   14.91729634950232    9.31001037636095
H        -7.21024225782915   14.94725019217409    9.56522215103469
C        -0.65121472860289   16.22980383173758   10.69806796027457
H         0.20677065930648   15.64061984838670   10.98139543325272
C        -0.88222945087727   14.17572081865521   13.25685717926976
C        -0.13851858255189   13.45298515731081    7.73117778566909
C        -4.69129649589819   10.90661346027784    8.50879255328689
C        -0.92692472746574    9.25049976924079    8.99800792983575
H        -1.03495144404684    8.92933677559184   10.02655508993967
C        -5.28359684669822   16.50445947605959   14.98145640491873
H        -5.97347871382389   17.01004823823297   15.64104467406472
C        -3.61001994780323    9.03017243568922   10.30667849110092
C        -5.83446538662550   12.18678877574163    6.81294328348720
H        -5.81054226583316   12.95816555796388    6.05683099649338
C        -3.00104813401654   16.69583960014838   10.77230407040396
H        -3.99859813285502   16.44463808360446   11.11106379796915
C         0.31675497277711    9.25398441879422    6.95042937600376
H         1.17681755592521    8.94258503243735    6.37629692433428
C         0.34652354674369   13.80624753604556   12.71269455178335
H         0.46534248707966   13.73314125340507   11.64085239947897
C        -1.89670719851269   10.07822102296750    8.43046606012205
C        -5.38713073895939   13.91027989461012    9.87203614512935
C        -4.77290340580402   14.68466246138655   13.50389280205319
H        -5.07348702074913   13.77468834872769   13.00410018458366
C         1.26770174099023   13.51261091738833   14.90531909950940
H         2.09946471663856   13.25550763274788   15.54428919837813
C         0.30198715857729    9.80308302382895   13.72585219860408
H         0.93196615746402    9.16180367760734   14.32268223737921
C        -0.64255987341631   10.06763375484667    6.37645227045391
H        -0.53571179237716   10.39328017078258    5.35181147116613
C        -3.75455268571364    7.91679965745799    9.47966698426041
H        -3.65167371997247    8.03087134787164    8.40865785942117
C        -4.02080106885263    7.63735220215420   12.22385636855371
H        -4.12298975690016    7.53193365704097   13.29393404988265
C         1.85001718697840   12.08070810592080    7.91263350795942
H         2.44606385755154   11.36377475137087    8.45459682723400
C        -4.01895159450519   17.03287057990888   14.76557063032229
H        -3.72383436099580   17.94844178362895   15.25740261156915
C         0.04332941704272   13.84873561104900   15.45644782826972
H        -0.08564333215618   13.84949771156885   16.52894000806068
C        -7.01113192984417   11.50865982726042    7.08163677928686
H        -7.90941077757187   11.74195848334812    6.52955905159907
C        -3.13635830038214   16.39209018821655   13.91968779125191
H        -2.15119797303614   16.80442321254285   13.74487724971253
C         0.64482770908414   10.14498720084288   12.44185471810036
H         1.56104108431462    9.81899489071399   11.97961558111308
C         0.16732326304401    8.84007306545483    8.26418148938709
H         0.90888270275824    8.20221999340454    8.72171152972069
C        -1.54192957843793   18.11939353681374    9.51275215262198
H        -1.39227693510499   18.97782931974335    8.87474267281139
C        -4.15814163025667    6.53534569670134   11.39888850585853
H        -4.36762409577415    5.56394685530342   11.82219722505010
C         2.24798484142738   12.58489678083065    6.68162130798670
H         3.18163124794797   12.25588850393755    6.24827656004395
C        -3.51067733112281   14.60390315185101    8.72108118544604
C        -5.88701567808680   10.24892096502997    8.78807571940573
H        -5.92457618171566    9.50801820777497    9.57394902408305
C        -5.57798056357778   15.81627502851506    8.43650182926060
H        -6.15818214151474   16.61082006634552    7.99272236740783
C        -0.18424760128232   10.98765794882370   11.68004423584209
C        -1.33500405579164   13.65965516629494    8.55355580072241
C        -7.03393710202644   10.54392297832157    8.07397339841005
H        -7.95260300826895   10.02372265335819    8.30249248736713
C        -5.65906791402796   15.33325139213830   14.34876748717160
H        -6.64421766465811   14.92084141995000   14.50884559277873
C        -1.66834995373106   11.12975965790883   13.44025111250072
C         0.64874056238416   12.52555817927678    8.42411938874412
C        -3.75099641321964    8.88186080174957   11.67881479738504
H        -3.65434763140003    9.74649368259432   12.31932162342532
C        -2.81092392033335   17.80059650569251    9.96557535665318
H        -3.65871963302588   18.40758419118972    9.68313224665748
C        -1.74156694667299   10.48162475738926    7.11008645664362
H        -2.47768654196138   11.10921767574320    6.63362687395427
C        -0.86465037143309   10.33077027583310   14.24803391072586
H        -1.18427861587918   10.15644064621170   15.26088305501085
C        -4.02941523575433    6.67856058889020   10.02489338804418
H        -4.14243181692737    5.81996206990858    9.37891757362297
C        -0.09139121193134   12.20072988726102    9.64652006899528
C        -1.02712300395141   14.17098048540701   14.64191808114538
H        -1.98206618089417   14.40491563742373   15.08918816580283
H        -3.98346100053873   12.06402378668900   11.79092462572622
H        -5.38883782979983   12.38917206512911   10.99831438318953
H        -3.27955397538111   12.11992223942289   13.34035689288207

