57
CSD_code = MUZDAO | q = 0 | S = 0 | Stoichiometry = C28H23Br2N3Pd | MND = 4
Pd        2.08943024515902    7.53865740284947    2.69694864432312
N         0.46137807101210    6.81169179489793    1.72181572504348
N         3.64175715988339    9.57737045498942    4.17428808121531
N         4.83382528007587    7.81329845120812    3.82211700894142
Br        3.37152931483079   12.66323158462840    0.02016998522916
Br        1.94947112527791    5.96531242128366    4.58501711150438
C         1.93757195803318    8.96533903754002    1.28403365856284
C         2.74259555962872   10.07200450630314    1.03110847691234
H         3.75085711863160   10.12969323274492    1.42198215898224
C         2.26193848361776   11.12709266453064    0.27814424748740
C         0.98851557651752   11.12328492524973   -0.26360336499815
H         0.62938409875899   11.96971478088449   -0.82827732698554
C         0.19408416841994   10.01181864956897   -0.07049681398568
H        -0.79777605408410   10.00212565715971   -0.49829992905934
C         0.65509034913425    8.93820952373252    0.69093543095387
C        -0.11052157657967    7.70848841698368    0.89146081035275
C        -1.31060389569131    7.40835464085805    0.24573333175587
H        -1.76577495308413    8.13113333445268   -0.41221739443271
C        -1.90917387844203    6.17923978949524    0.44477738261710
H        -2.83851248568209    5.93783735672606   -0.04948458415918
C        -1.29079534338701    5.26202022779237    1.28037366864011
H        -1.71387519831785    4.28642809141209    1.45642412904726
C        -0.10807687538955    5.62604239591473    1.90043711574125
H         0.39248289189387    4.93814354085035    2.57244710382638
C         3.62650755413088    8.36376389439838    3.58388105771133
C         5.60407370936917    8.68206387273991    4.55833948764601
H         6.60794011132829    8.45532741784774    4.85151328269174
C         4.86346976983596    9.79462659389905    4.76436888483242
H         5.09232107243519   10.69522806789637    5.29556932888348
C         5.17618255320549    6.49628348850334    3.44859093913565
C         4.69836029654847    5.96060428458999    2.25195012407678
H         4.12874465055122    6.58169215446922    1.54984632780076
C         4.97985893478409    4.64566659518273    1.93456467229890
H         4.60269467651104    4.23086278073569    1.01083407521569
C         5.73672112156885    3.84430489176783    2.78407304785255
C         6.21911837346598    4.39824274982136    3.96131268386459
H         6.80354441902288    3.79269316989344    4.63786952221904
C         5.94209456650284    5.71034700574665    4.29804999516396
H         6.28957218856013    6.11082440537170    5.23802942835736
C         6.00288955471590    2.41443454025684    2.43110970297991
H         5.07805992926596    1.84137886518337    2.48564898431235
H         6.72215234982731    1.97075907635906    3.11401677959079
H         6.38465545523097    2.33447953336745    1.41491206256128
C         2.56784003902830   10.48571808013688    4.06608869816771
C         2.80770887696886   11.81456617921041    3.74537200381916
H         3.82152676627674   12.17589627472252    3.65549602148171
C         1.74575573804351   12.66271205064828    3.49102448987330
H         1.94440158122154   13.68852160277981    3.21841977918431
C         0.43662565854304   12.20389718533018    3.54765941905333
C         0.20808435427889   10.88191096519770    3.91739887629271
H        -0.80747935736116   10.52165388432771    3.99706659066256
C         1.25666189550847   10.01975774001556    4.18052685082667
H         1.05333680276196    9.00186472547287    4.52562721006375
C        -0.71234161943245   13.10053028757686    3.20763008481554
H        -1.13366071863202   12.81096226075361    2.24485050556219
H        -0.39376467118256   14.13746259358832    3.14414166307434
H        -1.50015777316210   13.01692990016114    3.95368276238192

