63
CSD_code = MUZHIY | q = 0 | S = 0 | Stoichiometry = C28H28Cl2O2P2Pd | MND = 4
Pd        0.90184770369676    2.26371343801683   -4.90818432804046
Cl        0.75413415429688    2.20612431426596   -2.63683220610894
Cl       -0.13212778233021    4.27008257231167   -5.14900639841630
P         2.00611168260683    0.39438036386776   -4.38845489777092
P         0.78439830669264    1.88293384458576   -7.10295637887541
O         2.49932353344050   -0.62158715743466   -5.57268119625171
O         2.09966984177934    1.26835692764968   -7.81584499144938
C         3.46652129956764   -0.32545669212073   -6.56896506842791
H         4.46360399758932   -0.39641036725858   -6.10879908441532
C         3.32186386694689    1.10887086134607   -7.11239699571380
H         3.32717565241562    1.78815519054543   -6.23663702900026
C         3.31079415123485   -1.38739855783061   -7.64991777529422
H         3.28888156477606   -2.36779713935709   -7.18207013557094
H         4.14000689455435   -1.34567766998419   -8.34888906655260
H         2.37496322407743   -1.23288377095613   -8.17982054077178
C         4.46015291299331    1.49494432128261   -8.04762220634485
H         4.40762563900911    0.91267749134444   -8.96320270008547
H         5.41776857392823    1.32446295405246   -7.56450139171186
H         4.37628110291112    2.54841511649494   -8.30212180507120
C         1.24080138870502   -0.89208120764370   -3.37115379324608
C         1.36769564010385   -0.88499715532878   -1.98752343798814
H         1.95333763147840   -0.11532465785327   -1.50748606923468
C         0.72435653958892   -1.85228441142531   -1.23671301769944
H         0.82150795130373   -1.84732090386321   -0.16128066624698
C        -0.04903211988982   -2.81907944599688   -1.85881454239842
H        -0.55440319837425   -3.56836328193631   -1.26724715593854
C        -0.17986580775726   -2.82178436613569   -3.23804593199868
H        -0.78681081157442   -3.57178903096239   -3.72410951950759
C         0.46045276045837   -1.85863201326463   -3.99622912456759
H         0.36302655793732   -1.85093564910723   -5.07233885459957
C         3.56949972607854    0.86422484565620   -3.57850970540093
C         4.43590013928701   -0.10100298339661   -3.07943034267186
H         4.15090003853321   -1.14377813025321   -3.12393653244146
C         5.64388050903983    0.28326646591940   -2.52499003322771
H         6.31643269243150   -0.46302499371420   -2.12802855519323
C         5.98804537983416    1.62497467064760   -2.47437388555207
H         6.92862884945507    1.92179793274266   -2.03454746757447
C         5.13020528661321    2.58775338762597   -2.98359056772090
H         5.40245210827533    3.63169805612353   -2.94111126979604
C         3.92243432034483    2.20969313595783   -3.54180224392451
H         3.22960764265967    2.96767318701721   -3.93210411951838
C        -0.41516731618488    0.50496206917501   -7.14542218512439
C        -1.28659703374167    0.35117691065988   -6.06987598401043
H        -1.25964312719969    1.06277424462535   -5.23077998615625
C        -2.19519022252201   -0.69333066385489   -6.06478707406109
H        -2.87023094765458   -0.81596537696898   -5.23094921833803
C        -2.22893556157133   -1.58630221839128   -7.12430205848118
H        -2.93094597384660   -2.40698011515303   -7.11463370174606
C        -1.36774127625937   -1.42879896417397   -8.19914382635657
H        -1.40256794282122   -2.12384254342997   -9.02553164398671
C        -0.46695599914472   -0.37919982957115   -8.21554508854503
H         0.20263489883149   -0.23455737882723   -9.05212664801771
C         0.13853488076489    2.95818762345373   -8.40665333712055
C        -1.14900406970340    3.45503410889874   -8.23073202479543
H        -1.70564067131686    3.18444256281163   -7.34373492228956
C        -1.68947212266411    4.30794563750991   -9.17326002240801
H        -2.68558627505884    4.70103147628193   -9.03656366089412
C        -0.94888709540883    4.66581459968554  -10.28923423459216
H        -1.37108179802367    5.33514128425643  -11.02428336663880
C         0.33434271326245    4.17380863471641  -10.46099602807395
H         0.91109782258155    4.45875300358755  -11.32885063593477
C         0.88487149421238    3.32395728442836   -9.51787711597839
H         1.88731607875534    2.94125815868309   -9.64084620409521

