109
CSD_code = MUZLID | q = 0 | S = 0 | Stoichiometry = C30H72P2PdS2Si2 | MND = 4
Pd        6.76324391627959   13.59956129779978    0.00008494498525
P         6.91347449465545   13.74085214953918    2.28888334809289
S         8.29306512457394   11.79471575087582   -0.02333388995396
Si        9.99721502829430   13.05190545828234   -0.03830042673302
C         5.36058862176903   14.17060114131420    3.18326288597363
H         4.99272939919343   15.09255494903928    2.72439477027572
H         4.64074120788013   13.38289427366575    2.94387756275905
C         5.45395910306870   14.34064715024306    4.69567240091939
H         5.80832881494349   13.41949806696699    5.16257414330717
H         6.15700483240197   15.13731822670595    4.94389931330168
C         4.08758028703394   14.69513902823635    5.28239270133237
H         3.37865676249898   13.89357991437914    5.06065353604212
H         3.71680037426364   15.60569397798668    4.80632492590729
C         4.15756607659250   14.90335998525895    6.79028099536324
H         3.17614111661366   15.15026984093003    7.18780354913025
H         4.83940443579821   15.71581056457127    7.03233109806682
H         4.51098782357069   14.00120720497570    7.28540343086575
C         7.50108063607222   12.24096409759660    3.17849761678791
H         8.47993792704763   11.98527281292858    2.76593985895303
H         7.62044817512133   12.46344282737105    4.24233665826354
C         6.55224730531403   11.06812192245203    2.95080272156713
H         5.59308112349796   11.25682819635550    3.43913895258438
H         6.38005348965525   10.97316834408957    1.87260601592895
C         7.13389787936220    9.75663702953469    3.47015920542894
H         7.33293958437468    9.84345085705253    4.54179901198198
H         8.08361411276009    9.56852028967955    2.96601043738935
C         6.18932535878749    8.58812317128970    3.21859654673079
H         6.61933579625569    7.66017590764733    3.58795854925151
H         6.00276875244376    8.48029995083078    2.15274482830063
H         5.23676373886364    8.74837929552525    3.72005842263709
C         8.09536931337389   15.02619634464283    2.87524003115069
H         8.19757457991285   14.94679152578828    3.96223120755543
H         9.06617262581323   14.79793442026866    2.42846973498873
C         7.66374668019397   16.43114908717223    2.46180623262140
H         7.41530158045167   16.43374059281596    1.39509936756007
H         6.75822633353168   16.71612287329579    3.00060558447993
C         8.75242216516494   17.46576604239746    2.73433367636544
H         9.66232081450141   17.18840894437284    2.19689162938651
H         8.99018645995070   17.47269889268521    3.80162086593088
C         8.31554520443389   18.85891926997646    2.29973817853334
H         9.10431512678325   19.58520982869684    2.48227634338138
H         7.42856584891409   19.16865313803764    2.84767146425164
H         8.07727429357892   18.86485202201315    1.23876466174924
C         9.61843572592990   14.91481327518594   -0.34744187560421
H        10.16341390078553   15.55194009397835    0.34354824661282
H         8.54148762309888   15.13063855012389   -0.23068252029052
H         9.90885750169880   15.21432208470740   -1.35128625822151
C        11.22321492111536   12.44146621607063   -1.37209997465676
H        12.21416060044702   12.82115753942948   -1.14892824374707
H        10.96938861347593   12.75033640547432   -2.37964324909733
H        11.27762314208711   11.35797497176856   -1.36377295197224
C        11.00170019481476   12.86202167488332    1.58396917627241
H        11.90134085022334   13.46687841365714    1.53146474035715
H        11.31065986407213   11.82708955759284    1.69285999280141
H        10.46728383987919   13.13836186614370    2.48713730339573
P         6.61369423665978   13.45807464792777   -2.28874392456787
S         5.23331578658049   15.40342445026360    0.02332677722747
Si        3.52821010464026   14.14767321697302    0.03840733877696
C         8.16640840510540   13.02858068874762   -3.18365180255451
H         8.53493339999866   12.10700542680791   -2.72457186911849
H         8.88590596984490   13.81679103887971   -2.94485813197325
C         8.07275100456128   12.85795591941310   -4.69600973010970
H         7.71804066594682   13.77885994309573   -5.16314985208563
H         7.36985373118530   12.06102248327694   -4.94381223249220
C         9.43915085687372   12.50358993108708   -5.28284238810086
H        10.14790255876582   13.30542339105257   -5.06153292094117
H         9.81025634701983   11.59332865463026   -4.80646189600956
C         9.36918578330426   12.29470632516795   -6.79065465976929
H        10.35071104282057   12.04795144311282   -7.18804777978666
H         8.68764535733110   11.48191825896600   -7.03239990518154
H         9.01549927172908   13.19653257637903   -7.28618308897385
C         6.02581121064199   14.95809053734115   -3.17786473284738
H         5.04765333705834   15.21423622672402   -2.76388869725185
H         5.90479980334908   14.73555976440186   -4.24150576549136
C         6.97518039205792   16.13082181311093   -2.95175015119060
H         7.93382251398810   15.94173503778194   -3.44096682779714
H         7.14845346332979   16.22634548127417   -1.87379878297991
C         6.39297703044330   17.44196976339813   -3.47133541791350
H         6.19349484559960   17.35462331888156   -4.54284962410163
H         5.44340204351181   17.62989570057472   -2.96684490793086
C         7.33705560162308   18.61107733771776   -3.22069520677808
H         6.90637723210445   19.53853766001835   -3.59050586544599
H         7.52383893646539   18.71970177918863   -2.15497053013311
H         8.28957560729093   18.45110854722626   -3.72233360457203
C         5.43155995159546   12.17294634575906   -2.87467210213337
H         5.32884779594040   12.25191423483846   -3.96164695682655
H         4.46097803705966   12.40143260034303   -2.42749020576471
C         5.86328363049157   10.76816272529589   -2.46075207236157
H         6.11169342079478   10.76603532121081   -1.39401945642093
H         6.76887299422731   10.48310096524251   -2.99939019600310
C         4.77454351871314    9.73359145610227   -2.73295155670825
H         3.86464921674694   10.01152021074273   -2.19580329118036
H         4.53699846369706    9.72623658015405   -3.80028273235105
C         5.21074783742343    8.34046087479675   -2.29763387383405
H         4.42171087052226    7.61448361737876   -2.48029170957851
H         6.09783344558764    8.03013091662751   -2.84504974485766
H         5.44851476775114    8.33478656053174   -1.23654871655019
C         3.90581800812394   12.28459214181846    0.34770615499897
H         3.36030533633493   11.64776887376359   -0.34315777334937
H         4.98260671563133   12.06808543463882    0.23089773691221
H         3.61526596506788   11.98536852225281    1.35159570690868
C         2.30230404195564   14.75885519945249    1.37197049267740
H         1.31119602006857   14.37949700417558    1.14888872318101
H         2.55601673623966   14.45002758851803    2.37956427757259
H         2.24825158309519   15.84235958145770    1.36352963068384
C         2.52426362280580   14.33802075687171   -1.58418697562962
H         1.62407944798663   13.73395429880576   -1.53187231767508
H         2.21619879500166   15.37316491918275   -1.69357152206772
H         3.05878413414468   14.06092459233481   -2.48706281883176

