101
CSD_code = MUZLUP | q = 0 | S = 0 | Stoichiometry = C30H64O2P2PdSe2 | MND = 4
Pd       -8.97933200059278   -2.62324598995338    5.32813507531004
Se       -6.67973797350788   -1.96594274182579    5.65917992593371
P        -8.33117998098143   -4.70342927791100    4.61905126039300
O        -7.40213175076264   -2.36188759962011    3.08534720964408
C        -4.94249911032072   -1.95027237406674    1.78292721832760
H        -4.00981551651326   -1.54187090892018    1.40200333698095
H        -5.76549214844599   -1.57154478677524    1.18136525832957
H        -4.91543032341831   -3.03292187639697    1.68015191052380
C        -5.13586690809455   -1.56017103814796    3.24130756671920
H        -5.09448204664341   -0.47247886813125    3.35440773799023
H        -4.35061370375095   -1.97541688749868    3.87767388913975
C        -6.47232843417470   -2.00491374928061    3.77408198096768
C        -6.59466411533282   -5.15368443305729    4.17208793285758
H        -6.47880134774860   -4.84419417248329    3.12778309375729
H        -5.91007884811966   -4.54418841720162    4.77067412193160
C        -6.22886807308084   -6.62568952037453    4.32328034434480
H        -7.00243618752908   -7.26062471077644    3.88329772797120
H        -6.14583385850372   -6.88069063625577    5.38143271965230
C        -4.89493245436240   -6.92583967301073    3.64065059978761
H        -4.12027965771408   -6.28505821475133    4.06830165445020
H        -4.97083088461367   -6.68888220943443    2.57656512712983
C        -4.49448539911941   -8.38672270166741    3.80591226945681
H        -3.54448397731515   -8.58028801601233    3.31380480421168
H        -5.24637701513031   -9.04101233733128    3.36939286076721
H        -4.39226905821913   -8.63803301377552    4.85937946351495
C        -8.72685635469014   -5.74322780772627    6.08423227667194
H        -9.82111032569671   -5.77964249184119    6.15903101277219
H        -8.35653871224962   -6.76470087627949    5.96826595500403
C        -8.14870882661524   -5.06080757599441    7.32588256991372
H        -7.05832217896308   -4.99109385073680    7.23703924869087
H        -8.54631595183145   -4.02873298039402    7.38386732290453
C        -8.51692224153926   -5.78815321343916    8.61446058741607
H        -9.59921332826674   -5.94014789944236    8.64101328740737
H        -8.04221104105859   -6.77329987279102    8.63062703331820
C        -8.09403496692594   -4.98583596937174    9.83787387828403
H        -8.35446678370824   -5.51034044584032   10.75446194856253
H        -8.59353755615561   -4.01980010008545    9.83586848485433
H        -7.01908151049727   -4.81722250897251    9.83080042097420
C        -9.29030879380826   -5.46912284244521    3.24947850568047
H        -8.77225859220598   -6.36957242531134    2.90628330750093
H       -10.26966360895847   -5.75672279392962    3.64711192209345
C        -9.47783150588318   -4.47801055804512    2.10407998974486
H        -8.50507919142624   -4.15823525766114    1.72265418731898
H        -9.98773749574288   -3.58544878059018    2.49498323121068
C       -10.31011961791308   -5.07302919617009    0.97368157731268
H        -9.79490789632739   -5.94711242090525    0.56553794752264
H       -11.26880946206087   -5.40806215336520    1.37682870844279
C       -10.55735862983754   -4.06229781777134   -0.13856902290442
H       -11.13891633152952   -4.50967428031824   -0.94140203352010
H        -9.61492060586675   -3.70954719386693   -0.55241251823429
H       -11.10507913553783   -3.20610961741535    0.24728406140552
Se      -11.27811157146711   -3.27888985174992    4.99736085315128
P        -9.62680187912139   -0.54155507351915    6.03734858403151
O       -10.55579846866743   -2.88340617220128    7.57122875701883
C       -13.01531223672634   -3.29514114220084    8.87362766727034
H       -13.94805132935322   -3.70344674847580    9.25452155510745
H       -12.19235369816183   -3.67406355433987    9.47511736440703
H       -13.04221415910316   -2.21249997521614    8.97654490891882
C       -12.82203224594306   -3.68509006831893    7.41519606821472
H       -12.86357204063797   -4.77276434622723    7.30195640856718
H       -13.60723241285342   -3.26964656562183    6.77889023112925
C       -11.48552724606606   -3.24045840624270    6.88245549731967
C       -11.36337560482204   -0.09165571774310    6.48437989627709
H       -11.47917684671104   -0.40116956442213    7.52868907213561
H       -12.04787589580062   -0.70119073348813    5.88573572615644
C       -11.72905165167169    1.38037887126690    6.33314658024298
H       -10.95544859128609    2.01531948545452    6.77307189624715
H       -11.81215501567250    1.63535947782409    5.27499357894100
C       -13.06294841482634    1.68052315030031    7.01586760207740
H       -13.83766562955966    1.03978212974079    6.58826624146696
H       -12.98699885537361    1.44357086472409    8.07995278285252
C       -13.46333626240953    3.14143291965884    6.85063712861597
H       -14.41329788641083    3.33501941383974    7.34281704226936
H       -12.71140502148141    3.79571187389874    7.28711242650892
H       -13.56563701340262    3.39276472527188    5.79718062033510
C        -9.23099814543047    0.49800661495297    4.57207841771581
H        -8.13673177097266    0.53433248210688    4.49731419272796
H        -9.60130239446466    1.51946629154324    4.68808507963576
C        -9.80921372763813   -0.18449794053915    3.33050374162564
H       -10.89959879276174   -0.25416818256750    3.41935662987286
H        -9.41163338682055   -1.21658415201444    3.27251803177863
C        -9.44098800555493    0.54286172205115    2.04193635753671
H        -8.35869918869864    0.69486643673731    2.01538351083823
H        -9.91570423046711    1.52800700215472    2.02576278654133
C        -9.86387933118020   -0.25945277682478    0.81852282980432
H        -9.60342896711118    0.26505533256162   -0.09805784489422
H        -9.36438188702833   -1.22548977047605    0.82051813577606
H       -10.93883299381411   -0.42806141684641    0.82558599842048
C        -8.66755876755751    0.22388256450856    7.40695349063288
H        -9.18561063240751    1.12430384047675    7.75017917191138
H        -7.68819853004474    0.51148879380876    7.00933566080612
C        -8.48004927834543   -0.76726597037015    8.55232429014276
H        -9.45280561497447   -1.08705300943817    8.93373745494694
H        -7.97012076786169   -1.65981820076108    8.16140123787695
C        -7.64779891596742   -0.17224946401635    9.68275091033523
H        -8.16308124507814    0.70176291477585   10.09095362074109
H        -6.68915839315226    0.16291149978983    9.27959750469911
C        -7.40042899971442   -1.18301241035088   10.79493873441140
H        -6.81890713265813   -0.73562112929700   11.59779017747579
H        -8.34282571270730   -1.53589120553819   11.20876554612592
H        -6.85262179064894   -2.03910977326858   10.40900686280895

