53
CSD_code = MUZNIG | q = 0 | S = 0 | Stoichiometry = C24H16N4O8Zn | MND = 6
Zn       -0.03775671773296   -0.81601428406848    4.99546626071596
C        -0.79575717614169    0.87598910318397    1.63993507726897
C        -0.54832963409175    0.99256861000037    8.33763599215358
C        -0.29320847841268    2.53659520565900   -0.00384484991628
C        -0.48525347780282    0.18314915459217    2.92886520563589
C         0.01102644926651    1.91477544756668    1.19847347721212
H         0.85899132211822    2.23303690735866    1.78571169397268
C        -1.84833477343845   -3.06672657140704    5.92646340450985
H        -2.49914048654667   -2.23196903136836    6.14296577766119
C        -0.33739569289633    0.25492097052376    7.05341957567431
C         2.79113977131825   -1.42239168594491    4.07792280660525
H         2.76487662361305   -0.36835396940615    3.84217950147963
C         0.24935807176140   -3.70793484001163    5.23435933623699
C        -2.00759085551271    1.96642054557951    9.96089464067610
C        -1.83549664868351    1.28690630599284    8.76372442698670
H        -2.68643303874378    0.99303393436118    8.16813359058126
C         0.54545693228790    1.38353055463394    9.10442228226344
H         1.53401294347173    1.13899620975195    8.74722836585140
C         3.89998049065333   -3.51713898839313    4.30275998328946
H         4.78308983101640   -4.13568062805459    4.24233521724872
C        -0.09585659659907   -5.05479062914514    5.32632645374941
H         0.60753628644083   -5.82719893022816    5.06078250084921
C         2.69753648718960   -4.05950903686322    4.72625347443409
H         2.64369002022409   -5.09765060984470    5.01131107792593
C        -1.89429659712376    0.47772251096234    0.88369910566262
H        -2.50197636743498   -0.33393096129357    1.25324582608053
C         3.95168049869552   -2.17447299327267    3.96550458995768
H         4.86880891741042   -1.71716355079016    3.63112391851550
C        -1.39380461424715    2.14908787822358   -0.76129702951321
H        -1.60009550361417    2.66095808187213   -1.68911085564789
C         1.57517946450171   -3.23690274790815    4.79858308668986
C        -0.91903663709523    2.36752009835493   10.72859756091742
H        -1.09399180913582    2.89886271618802   11.65189385033120
C        -2.26876960641088   -4.38264547933716    6.05567113848847
H        -3.27102754962104   -4.60627191251243    6.38361674987894
C         0.35944751690489    2.07293349850410   10.29186020024052
H         1.21095899855759    2.37984698565939   10.87949676947376
C        -2.19409630223805    1.11622723068603   -0.30883100489240
H        -3.05090316608014    0.80815952034836   -0.88808694353103
C        -1.37307035535477   -5.39238072018192    5.74368094815149
H        -1.66311367864013   -6.42986955807226    5.81866254350605
N        -0.62989399474305   -2.75065181262784    5.53102306200088
N         1.64776829423523   -1.94444285944125    4.47928170721566
N         0.55207325359994    3.60290708245295   -0.48516173442022
N        -3.34253536373280    2.25831897504285   10.42546203440203
O         0.37790063784396    0.67523215908298    3.69028152418661
O         0.79607288130803   -0.19502961227486    6.78271933471651
O        -1.07551779719910   -0.88129919589893    3.21024748114189
O        -1.31088370323296    0.08533258728125    6.28493601280977
O         1.55408973868448    3.85776550671395    0.14652846832885
O        -4.27184293840271    1.81147381833620    9.78921511966300
O         0.21259909301755    4.17564492213148   -1.49916252168695
O        -3.45436496321600    2.92770408731279   11.43089378425485

