80
CSD_code = MUZWOT | q = 0 | S = 0 | Stoichiometry = C25H47N3O2Si2Ti | MND = 5
Ti       -0.95720015801597    5.88874227521074   19.98307479188987
N        -0.02933272281312    5.09630987444592   18.44595148555690
N         0.48488913306589    7.21025939458728   19.75549872267091
N        -0.61355324772084    7.25763660220575   21.64213271695874
O        -0.93922034182505    4.55486292163392   21.08041837055198
O        -2.56896455387725    6.23168107338876   19.46695762153716
Si       -1.11850790258284    7.38205964412090   23.28076780710683
Si       -0.94438255278306    3.94881016652778   17.56226998972881
C         0.88646638945706    6.01154382492499   17.79840309136354
H         0.32733901632664    6.73338709352634   17.16849560891367
C         1.58243665090681    6.82748671349600   18.90659489479217
H         2.27992325417261    6.16342832130352   19.45185613548006
C         2.39565063534594    7.97342569699572   18.30232425485154
H         2.86094477729070    8.56255744705813   19.09727499339820
H         1.73049660931512    8.62902826003049   17.73531445276281
C         3.46347752026306    7.37834487168803   17.38607409272185
H         4.03406059272769    8.17995247709728   16.91197114716535
H         4.15755510705239    6.78650265234240   17.98767717442058
C         2.83898261741699    6.48778028458874   16.31196000732229
H         3.63036300921491    6.04212903468539   15.70532011897571
H         2.22241629156316    7.10397766131039   15.65336055551499
C         1.96827536405282    5.38409865736029   16.91427281902644
H         2.57461732642243    4.70232781564607   17.51386798227099
H         1.50039510182032    4.80638559093856   16.11893506349719
C         0.55359603775953    7.38974281010885   21.06205903085580
C         1.80887451096212    7.74085212530828   21.77808554369602
C         2.74901753035896    6.77193403665567   22.11122988367079
H         2.56517322786426    5.73629293493013   21.85839552827810
C         3.90702490636307    7.12953249668821   22.78029719706107
H         4.63147585036744    6.37206187793062   23.04146199438640
C         4.13724752389122    8.45285853809127   23.11727162804092
H         5.04139483613811    8.72858319880183   23.63941251848735
C         3.20501870778853    9.42171155972026   22.78412529657791
H         3.38221888177511   10.45470685558267   23.04489598237992
C         2.04573006053848    9.06906080314755   22.11649925160816
H         1.31451375047261    9.81875486437121   21.85165681219260
C        -2.70561384215189    6.31894053158776   23.31742608791678
H        -3.60062358279522    6.93319916491297   23.33461822806525
H        -2.74467680525966    5.67163838030273   24.18837752779688
H        -2.73674509849730    5.69612495145257   22.42024743321446
C         0.13412286539649    6.77702788129455   24.60525690988719
H         0.38623314830255    5.72818741105051   24.47616810253492
H        -0.27907316816417    6.89223210970766   25.60274329190083
H         1.06011588707968    7.34490200384226   24.56844787081060
C        -1.50648392957800    9.21195561427024   23.70435786848471
H        -0.59904814975256    9.80284154866030   23.78388658382670
H        -2.02075573789531    9.27679382993634   24.65731226635841
H        -2.14146080425096    9.67784269149051   22.95715751068986
C         0.11165311635224    2.49313220436744   16.85653531226027
H         0.50136187944752    2.71417801188082   15.86835971276679
H        -0.49092782554227    1.59488702070729   16.76799407259587
H         0.95634154527341    2.25873511579839   17.49658836066940
C        -1.90484055196047    4.67320064440012   16.05111806592694
H        -2.73122704833729    5.29690484736656   16.38223013324005
H        -2.31585984870039    3.88737505562214   15.42521924457110
H        -1.25802167150384    5.28037650995982   15.42331148796928
C        -2.23829451945607    3.15758676497544   18.72585346131414
H        -1.76035180261534    2.54780764651388   19.48604278791154
H        -2.92678815193626    2.52247940190020   18.17632381492755
H        -2.80983067842640    3.93398486048350   19.23496954392592
C        -3.19124114375199    7.36876161706398   18.98488221667031
H        -4.10676479941460    7.06366023238711   18.43571997066752
C        -2.26555020086925    8.12833920866186   18.02056216236816
H        -1.36396535646506    8.42757884864167   18.56425063390150
H        -2.76533047644720    9.00979003891217   17.62134337536359
H        -1.98381476363210    7.47309759548605   17.19619121232493
C        -3.59388345759942    8.27933139022309   20.15473840416329
H        -4.27321731570238    7.74541630595206   20.81611143077962
H        -4.08266967156796    9.18196026019404   19.79364397670038
H        -2.69383728143481    8.53813979217765   20.71451216014600
C         0.03816171615392    3.92142746113869   21.81859007286509
H         0.58223491239170    4.68276984523718   22.42399620825439
C        -0.59702892862350    2.91311696634174   22.78884737990333
H        -1.27628938453331    3.43143169903719   23.46143281432956
H         0.16834661985496    2.40493536048177   23.37085037209252
H        -1.16557611549630    2.17889133134160   22.22160266764332
C         1.04947203653567    3.21976239963963   20.89418230819342
H         0.58899204287597    2.34097058697223   20.44689212196198
H         1.93576868975320    2.91474306000361   21.44834207102797
H         1.31807391186996    3.90653134116094   20.08729819537258

