57
CSD_code = MUZYEL | q = 0 | S = 0 | Stoichiometry = C24H28Cl2OPRh | MND = 8
Rh        9.50992078146495    2.17701065293389    8.92531971789435
P        10.91597571714156    3.30483846915340   10.29494494951459
Cl        8.64538275906641    4.33766040424857    8.75059185247288
Cl       11.04295938160242    2.58971026947476    7.21727500756018
C        12.61811928045570    2.70031093089385   10.52284968660892
C        13.07130699312888    1.58940650558626    9.82388268570352
H        12.40536706006222    1.09631168482218    9.12990747385848
O        11.11922020341165    5.91497140704205   10.84981282914323
C        13.47557634707003    3.37575025742268   11.38937421359179
H        13.12008067266502    4.24480779106505   11.92634880680700
C        11.30921824180044    5.12130628449465    9.96974367662469
C        11.91676109876478    5.41303683441775    8.64582767742717
H        12.27660676132725    6.43851821422382    8.60438565758689
H        11.15744777918497    5.25724783079387    7.87880576065439
H        12.71952838363852    4.70500338634014    8.44145631812281
C        10.26672042609136    3.39847298950916   11.98788910980073
C        10.22224010387206    2.69200108324621   14.28345483119158
H        10.63251580092624    2.09528618348385   15.08557958098013
C        10.78902287658881    2.62861764107147   13.02261378870514
H        11.64314985695205    1.98961410103718   12.84447229346165
C        14.37107546408065    1.14646350692489    9.99803740068648
H        14.72374016912008    0.28384948990046    9.45202367280774
C         8.60712682762120    4.27799706746410   13.48605653192036
H         7.75856628325608    4.92051597159445   13.66826868354102
C        14.77190362989856    2.92795167793434   11.55870811379147
H        15.43713558487073    3.45073002693319   12.23003879480796
C         9.13501326913823    3.51801615506179   14.51786318337412
H         8.69901737860360    3.56701453800927   15.50488876248145
C         9.16227121022382    4.21441726685324   12.22146698033580
H         8.74912591929135    4.79385430781705   11.40864015544601
C        15.21964610756384    1.81262868337208   10.86622373016225
H        16.23420426973524    1.46784584685692   11.00094171182487
C         7.99590327799439    1.08801995488322   10.07430739591809
C         9.48522518116527    0.00392756655946    8.68198946746224
C         9.18328120599168    0.28355317271338   10.04743785985246
C         9.88706042092222   -0.28367259494198   11.23855921294205
H         9.48431214994391   -1.27605614951498   11.45094717687418
H         9.73701789145423    0.34042501834886   12.11668810256714
H        10.95668673509093   -0.37950624249519   11.06210184242679
C         8.43297824714464    0.56742693674953    7.86160171017683
C         7.50675020191341    1.20469098991251    8.72163432916209
C        10.54228573630617   -0.91537919075009    8.15899683035032
H        10.07277034526327   -1.82393797597541    7.77801126453090
H        11.24794036262165   -1.19184473025786    8.93855709903056
H        11.08627316182089   -0.45027648648803    7.33747433904792
C         6.19894001758250    1.82828322568545    8.35911065290118
H         5.39322057603417    1.30400874790883    8.87475105687505
H         6.02339008138844    1.77877628188662    7.28772185661732
H         6.17137898153710    2.87515246678755    8.66209444125437
C         8.30920124966362    0.33103426361597    6.39017749322313
H         8.03295250040848   -0.70953900088224    6.20865789655685
H         9.25755766612658    0.52443918123399    5.89089808630599
H         7.55421686718222    0.97668644269101    5.94889869761698
C         7.21247320948930    1.48612426197750   11.28382220770336
H         6.42384598318244    0.75265775132323   11.46472815442374
H         6.74611065397942    2.45782865792970   11.13596628782801
H         7.84358065718033    1.53890999111982   12.16777289944260

