45
CSD_code = MUZYAJ | q = 1 | S = 0 | Stoichiometry = C23H15ClN3PtS2(1+) | MND = 4
Pt        5.60430320661997   11.97052851524249    6.74142697169306
Cl        7.39470034094743   13.00558906609599    7.52262056604609
S         5.43365340503688   11.45682883139677    2.37503582801740
S         2.66373264571990   10.68242001717949    9.75012063060556
N         4.05332000772174   11.07600671481087    6.06493934744758
N         6.04935922071349   12.02144490798069    4.78871084050559
N         4.66487022722570   11.63299472844824    8.47889047984734
C         3.94083320347344   10.88741573933373    4.73847776810299
C         2.82822318679733   10.24622756175859    4.21979994870877
H         2.72720798478080   10.11602956097915    3.15481580294834
C         1.82259608562350    9.79691127938279    5.09373681507271
C         1.98151407447769   10.01166721107815    6.47422212646585
H         1.24125084305963    9.65758939775989    7.17272944340414
C         3.11564078232878   10.65972389235200    6.93383502156580
C         5.09345348531769   11.44008770078460    4.05704883759706
C         6.90567206734750   12.27429895994324    2.69757112764752
H         7.56572237621318   12.54838932477636    1.89967825937799
C         7.06520251419810   12.48971373675989    4.03063870002322
H         7.89914275822721   12.98103651942453    4.50261020916084
C         3.50635441156108   10.99407985512360    8.28793638730918
C         3.92892507438630   11.44293815247613   10.62189644426804
H         3.88722107565746   11.52216585709265   11.68931535868507
C         4.90453088362705   11.88559299010924    9.78453496853609
H         5.80802877402000   12.39674063114253   10.07091712762622
C         0.63699753215005    9.12407240798934    4.58026816212097
C         0.70757026988282    8.30720842546084    3.44696149197075
H         1.65907150621456    8.13574284836561    2.96605176428767
C        -0.41474682683838    7.66886663357610    2.96809169140360
H        -0.33164354723890    7.01747174793166    2.11168773552578
C        -1.65429869838810    7.82740503885644    3.59231033096901
C        -1.72475429018002    8.64839053170314    4.72023154062820
H        -2.67736318450732    8.80823057341129    5.20147896971543
C        -0.60299918190571    9.27995619294268    5.20881086342823
H        -0.69545082476716    9.93835941483338    6.05966421677656
C        -2.84816362439621    7.15119774576015    3.07870333547738
C        -3.07060589562579    7.04914455838102    1.70552066583888
H        -2.36915177446505    7.49496526175729    1.01561727932015
C        -4.20102280349145    6.41712997664531    1.22378615081204
H        -4.36765869008792    6.35469817039968    0.15903902875598
C        -5.11879157092727    5.86522670870464    2.10290746166771
H        -5.99827383897470    5.36707842483143    1.72495478215411
C        -4.90405563364711    5.95485279179945    3.46877582544501
H        -5.61376646969491    5.52115901193849    4.15695700668475
C        -3.78214489330647    6.59846405963445    3.95494805361463
H        -3.61030619488383    6.64745832364699    5.02022463273531

