119
CSD_code = MUZZOW | q = 0 | S = 0 | Stoichiometry = C44H68O2P2PtS2 | MND = 4
Pt        5.28193036827798    8.49030741458242    4.51457118223434
P         3.51010428713918    8.32073063499429    5.94606323265326
P         7.05769232929198    8.63646366137300    3.08934161188555
C         3.96096705461003    8.12678583813920    3.06234767779961
C         3.17308275391979    7.90395700452209    2.16596259891740
C         3.67606357044606    8.68008723393320    7.74710285695539
H         4.04288790486033    9.70963949544434    7.81384550481298
H         2.69117540640260    8.63529243529720    8.21904888908335
C         4.65458877011847    7.74572090087837    8.45432159761551
H         5.52336467123218    7.58771155590711    7.81058332193165
H         4.17941807854498    6.77857551947957    8.63253603073314
C         5.13213708837832    8.32634895543856    9.78347408055803
H         4.27587341594742    8.48597849160994   10.44410041573144
H         5.59924452361305    9.29623325813170    9.59965610359097
C         6.14200417051177    7.41211654184210   10.46497641661452
H         6.47561249244905    7.84418578020106   11.40536413295433
H         7.01162091671596    7.27241995885437    9.82680082964424
H         5.70326399461383    6.43760965614238   10.66957141305227
C         2.04847547600335    9.33140745319202    5.46080733580881
H         2.36327518616334   10.37840702605303    5.51398054718952
H         1.87695179101671    9.09362796406574    4.40577258736279
C         0.76548358572521    9.11016943371403    6.25932103778098
H         0.84720663667004    9.57997448248118    7.24152434104210
H         0.60819317873099    8.03964794941589    6.40812860061551
C        -0.45892749201895    9.68156019760481    5.54066830712579
H        -0.54116508921688    9.22550625596249    4.55167042572245
H        -1.35231674430598    9.40637545939269    6.10624727768258
C        -0.41141196602106   11.19816152383563    5.39762856633475
H        -1.33636358134689   11.56270548860198    4.95737631461193
H         0.41130833645925   11.50446759248240    4.75694705965638
H        -0.28669382540942   11.66992047211886    6.37031732661790
C         2.92039213425400    6.58078361768693    5.85199638075430
H         2.32825506422300    6.31296631171839    6.73072766842434
H         2.28057851762693    6.53170863723635    4.96707473046218
C         4.10929323379086    5.63088711519001    5.67804492387294
H         4.85947711676728    6.11942637042268    5.02776074261993
H         4.58036780831138    5.45416879258403    6.64634203941466
C         3.71775990331771    4.29207142693133    5.05284062671140
H         4.53948556842925    3.58625180272844    5.19549014941166
H         2.84431686555210    3.88942285809470    5.57223557850979
C         3.42337733025984    4.40526370080005    3.56191368908591
H         3.20634827849736    3.42558748647415    3.14205651572314
H         4.28297996672590    4.82466207639551    3.04337203838652
H         2.57049818069801    5.05180403465494    3.37276565172018
C         6.60641938229140    8.86842836899337    5.96063396207235
C         7.39821263952500    9.13460027781370    6.84173260670840
C         6.86654685324388    8.33748653199675    1.28015218154803
H         7.84856576816821    8.35459545718547    0.80049099674491
H         6.45315278426223    7.32832837901653    1.18340546704147
C         5.92399886204207    9.33804664104246    0.61569758477256
H         5.06892453458721    9.51050840714108    1.27437465429721
H         6.43940867615788   10.28943956539195    0.46741639993273
C         5.40955731607467    8.82735040321398   -0.72829814085220
H         6.25125740723034    8.66439928327565   -1.40659574461511
H         4.91065348965318    7.86790654200787   -0.57644020919860
C         8.45892723637761    7.53229040442530    3.54840092900478
H         8.65287110835209    7.74540306618317    4.60491426312014
H         8.08197538908163    6.50662848884957    3.48407004772372
C         4.42372794594873    9.80219418520363   -1.35912384772891
H         4.06376562807342    9.41982492960309   -2.31123768623815
H         4.89318455181381   10.76870865028241   -1.53089528922365
H         3.56739481240456    9.94556431073265   -0.70399530920404
C         9.74573485422338    7.68769446512838    2.74070172352301
H         9.62383615633182    7.24473567183624    1.75022044981387
H         9.96926947843958    8.74899321918999    2.61198954917482
C        10.93874404621013    7.02502713734504    3.43327028497611
H        11.06012758829414    7.45453359042895    4.43006492341580
H        11.84174226673378    7.25493127055452    2.86273880346814
C        10.79672686950160    5.51178118959733    3.54631152071820
H        11.70178175201848    5.08037891686756    3.96703971756719
H        10.63114310339872    5.06935756733776    2.56599548038198
H         9.96389978720186    5.24457177178449    4.19142042685692
C         7.74996521491059   10.33551017930709    3.21861082226569
H         8.40233344642975   10.33117342217380    4.09736058121208
H         8.34374640621208   10.57952072376300    2.33503024100093
C         6.62477804569846   11.35136096298577    3.43666704372636
H         5.85808600504220   10.88642402302241    4.08288816836798
H         6.14884907302516   11.59627271450696    2.48561306170379
C         7.11205771777094   12.63393606888106    4.10701635632069
H         6.24827733056444   13.26828734436255    4.31856895363845
H         7.58056539612511   12.38236279444394    5.06096655573254
C         8.09920928243254   13.41186020546865    3.24399602115718
H         8.36759218010873   14.34855199841174    3.72684230958517
H         7.66021072990886   13.64093372550029    2.27494031610784
H         9.01094075740882   12.84156795867343    3.08443784020747
S        -0.49089178184962    7.01301666229079   -2.45603745492108
C         8.27982868214800    9.40593511873429    7.91049599524603
C         9.19304450327163    8.43723544641911    8.33776780486201
H         9.23263699452590    7.48411436019670    7.82858027368005
C        10.03074780153588    8.68498658902258    9.40441926060178
H        10.73102084364480    7.93374661441266    9.73711342160302
C         9.97296616064406    9.91390026230448   10.04256633094944
C         9.07617227546130   10.88952095001313    9.63429864371870
H         9.04543216300281   11.83832902862513   10.14936186924861
C         8.23192828815107   10.63527741174823    8.57469365597872
H         7.52732772468973   11.38725810112685    8.24776916720083
S        11.06016757072862   10.25340205989400   11.41523199744419
C        12.64895544027173   10.13964577385472   10.61677895850114
O        12.76084057906339    9.85385652911756    9.45862793558344
C        13.76384632295757   10.45997938408320   11.56602092551170
H        14.70917182418733   10.11330517481774   11.15527140387875
H        13.57981066067966   10.00738871852087   12.53687472478665
H        13.80894628200356   11.54029814752991   11.69792743834070
C         2.29143239387023    7.68262994590244    1.08555018414751
C         1.34936316005369    8.65409730113159    0.73375701472296
H         1.28809921278574    9.56710252734320    1.30990932488329
C         0.51057067538578    8.46052977637925   -0.34316504210593
H        -0.21222103929381    9.21410770494439   -0.61726242521785
C         0.59682717868629    7.28259845871160   -1.06820457206363
C         1.52173191914614    6.30478399699360   -0.73511351647653
H         1.57389718131779    5.39622184394470   -1.31666768825918
C         2.36663056257556    6.50509200452807    0.33548318334232
H         3.09040072161745    5.74915759081469    0.60547211458695
C        -2.07405141911471    7.00903839523533   -1.63886057065026
C        -3.18735559930629    6.72335849044120   -2.60091876157988
H        -4.13931681491038    7.00681010097966   -2.15825514985010
H        -3.19857389028732    5.65489022951079   -2.81259793824979
H        -3.02793483349399    7.25265944344533   -3.53668520047549
O        -2.18309087639418    7.20015517584514   -0.46107568382694

