107
CSD_code = MUZZUC | q = 0 | S = 0 | Stoichiometry = C56H44O2P2PtS2 | MND = 4
Pt        7.76705410416687    4.24388101497345   -0.01645576493542
P         7.05422705873886    3.45810586441525    1.98462036400873
S        15.66915156639884    6.40872388783956    4.07937020757761
C         9.41338234549484    4.88033912536353    0.91636617438862
C        10.45971021425368    5.15463306494754    1.46533296918544
C        11.68707996877127    5.46168168351514    2.09051856989005
C        12.25926932281578    4.55472094638909    2.98744669416172
H        11.74661210356830    3.62665380937914    3.19902805079304
C        13.46133604543988    4.84059772244256    3.59911790859483
H        13.90168607617019    4.14263637171902    4.29522115678009
C        14.10844433031089    6.03065453243930    3.30376253081384
C        13.55574775342614    6.94490880494587    2.41952211414571
H        14.07519943892194    7.86838935297087    2.20957202941501
C        12.34725192027014    6.66324217169395    1.81820561666091
H        11.90526574705098    7.36518837876855    1.12530192776335
C        16.67717303112902    5.06092880956636    3.49285466268161
C        18.09138042571638    5.18484932264188    3.97424606585758
H        18.60189473684517    4.23050218114562    3.86857180636951
H        18.11442620294077    5.51894317621194    5.00812151901152
H        18.60207113187162    5.92935884357274    3.36489647905805
O        16.23844233284191    4.19494945745027    2.79093611697369
C         6.69857399043019    4.63069834483958    3.32311981872468
C         7.17873097414063    5.93088856320789    3.21896207299184
H         7.74595382966620    6.21463091160154    2.34024220441930
C         6.94071449863421    6.84030966521331    4.23359885315007
H         7.31614036852484    7.84968745180889    4.15211258796631
C         6.22009300743619    6.45585390796881    5.35240183641424
H         6.03377615920013    7.16513287900861    6.14533234939034
C         5.73153743698567    5.16246160408081    5.45505838941097
H         5.16523147949303    4.86627701085109    6.32615143473615
C         5.96545807670558    4.24932984644196    4.44359757516630
H         5.57497591449724    3.24270804976141    4.51477863584428
C         5.58061852664275    2.39322873325085    2.00660093823909
C         4.36710165965899    3.00098118268560    1.69222380030790
H         4.34471432963231    4.06631779280952    1.50169127171215
C         3.21317036265061    2.24744688535289    1.61474159363765
H         2.27508790848260    2.71934975213712    1.36300634028401
C         3.26509790347184    0.88065397316159    1.84524403334754
H         2.36409087452373    0.28863970158763    1.77862081390715
C         4.47052653058807    0.27240348545315    2.15176583433620
H         4.50967286325094   -0.79316387632331    2.32697248576493
C         5.63135430781959    1.02361348863246    2.22849882848496
H         6.57453983837668    0.54743910046092    2.46025122259675
C         8.38724890682425    2.39804620512249    2.61135438914422
C         9.12421187683870    1.73802155563687    1.62975702744261
H         8.85082655355932    1.88025559088054    0.58262690470580
C        10.19247324545302    0.93793364953338    1.98274808239440
H        10.76782429595302    0.43125541234152    1.22208887126053
C        10.53570678861695    0.80121634635185    3.31989859487587
H        11.37944113596401    0.18738318576538    3.59905138560290
C         9.80896864909216    1.46137291282865    4.29687430025511
H        10.08656882287021    1.36077069316550    5.33618281688181
C         8.73303355592090    2.26084815995378    3.94799085587773
H         8.17589480988519    2.78707881337187    4.71024300684681
P         8.47775531054842    5.03522236010471   -2.01628797591644
C         8.82834043288901    3.87320918591848   -3.36532184470332
C         8.34344175103377    2.57399025039581   -3.27156155375534
H         7.77805105458169    2.28434282476074   -2.39362760648192
C         8.57464333658220    1.67309365217097   -4.29529725039099
H         8.19538503391431    0.66453882409393   -4.22193805084889
C         9.29329568481485    2.06507501922126   -5.41274562033956
H         9.47410083889383    1.36251814102619   -6.21289393369740
C         9.78692656440408    3.35733720840286   -5.50483154320708
H        10.35162467773482    3.65934452026708   -6.37496498043448
C         9.55969326920434    4.26205475855635   -4.48432679801269
H         9.95350346263539    5.26790089893325   -4.54768139315288
C         9.95039897133488    6.10180719703897   -2.03587464670856
C        11.16445950440254    5.49459007219771   -1.72271727420378
H        11.18741983543779    4.42935409472065   -1.53170360934007
C        12.31826374805348    6.24855642733814   -1.64694048496689
H        13.25681270604142    5.77702222950308   -1.39620206956408
C        12.26568309579271    7.61529220966945   -1.87772462154277
H        13.16652736464080    8.20771263090964   -1.81218683513991
C        11.05961063209973    8.22307594546744   -2.18268174247827
H        11.01990843971929    9.28862301374052   -2.35785846141819
C         9.89898700314806    7.47139816269856   -2.25797694745909
H         8.95548097161552    7.94718759775053   -2.48916130083751
C         7.14149794741454    6.09836744017708   -2.63114600647324
C         6.40819340151223    6.75229998592676   -1.64272222161372
H         6.68708634012431    6.60588675218522   -0.59757367543695
C         5.33674101690512    7.55209198872668   -1.98656127722842
H         4.76452077942376    8.05433667550590   -1.22060176987434
C         4.98648384357359    7.69441730125159   -3.32130307193600
H         4.14037341807121    8.30819759134884   -3.59331884543579
C         5.70966218876518    7.04050140825001   -4.30503365270740
H         5.42676179737056    7.14556828009524   -5.34244986915242
C         6.78888377533350    6.24156019171994   -3.96534959850003
H         7.34322586618962    5.72007522574633   -4.73288767586013
C         6.11937507082250    3.60359309984570   -0.94465223485945
C         5.06915384146843    3.32033866528926   -1.48168497869323
C         3.83518991510351    3.00837114354572   -2.09135115379335
C         3.23515212570192    3.92552107851554   -2.95938025903440
H         3.73305571305018    4.86346715339630   -3.16263524409194
C         2.02438378394414    3.63759399822904   -3.55256135499417
H         1.56191106555255    4.34390003382772   -4.22558412552896
C         1.39671625006000    2.43455470358669   -3.26790112072681
S        -0.17577441408857    2.05495897403055   -4.01880864139841
C        -1.18787122913821    3.37181052350685   -3.37239209641785
C        -2.61130323494548    3.24163265775794   -3.82404132178643
H        -3.12913374116410    4.18827368333622   -3.68866316503309
H        -2.65459475372127    2.92651529845245   -4.86314716043537
H        -3.10044749718134    2.48085926733841   -3.21701641082894
O        -0.74470537264869    4.22271263142577   -2.65492112976873
C         1.97741942762758    1.50975404306809   -2.41316129379501
H         1.47280451957272    0.57627746653966   -2.21131522283873
C         3.19429872785582    1.79398402597900   -1.83003159661537
H         3.65746039948939    1.08387198423245   -1.15964363619106

