18
CSD_code = MXNSNI | q = 0 | S = 0 | Stoichiometry = C2H6N4NiOS4 | MND = 4
Ni       -0.36173556176198    2.58078118696132    0.11505126977853
S        -1.87652475326600   -0.07593162078950   -0.32333022375661
S         0.96971712427012    5.10310069759153   -1.06341079207434
S        -0.92109068867393    1.41077088112479    1.83305050234586
S         0.62001616454224    3.92301607713089    1.45188911017209
O         0.12729455360670    2.39226786490287   -3.32532650386805
N        -1.17256532906259    1.20850830004322   -0.98813455418691
N         0.06154224988140    3.79473516101423   -1.40947381800107
N        -1.67767725480219    0.13075812051468    1.20290298765858
N         1.17705273496037    5.07355883432057    0.47234911714213
C        -0.23190480832710    3.64554025518807   -2.81428870574439
C         1.50877832839154    2.11028139968656   -3.22781336751358
H        -1.19604095125353    1.18470912186608   -2.00439549431780
H         0.27740414844850    4.44704580929525   -3.38380941340934
H        -1.31417608698573    3.71905841526823   -2.98520450532809
H         1.65901607682213    1.14782169751052   -3.71081847020291
H         1.82367078338927    2.04559707215864   -2.17906138494508
H         2.10102326982099    2.87848072621300   -3.73887575374940

