124
CSD_code = NABBEX | q = 0 | S = 0 | Stoichiometry = C61H54ClNO2P4Ru | MND = 6
Ru        4.31154405049920    4.13118793061148    2.18968176463375
Cl        6.19741651353092    5.49406154417425    1.53776069587152
P         5.26553295993189    4.39910184538932    4.28686685961169
P         3.23051980468133    6.10616543576179    2.75476763146520
P         3.62205617835536    3.96744672469504   -0.00233230301695
P         5.43536306634911    2.19539275220143    1.69855400287746
C         5.38741811705412    6.22995349278317    4.54036157309177
H         6.10109014996009    6.63141195577624    3.81817998250050
H         5.74207750322961    6.43896184085264    5.55575506736729
C         3.99702058320406    6.80278861283038    4.30532135166889
H         3.33232039937378    6.49892460663045    5.12489376298007
H         4.00844886655539    7.89623420506345    4.25701423646214
C         3.51285600192567    2.15526247263225   -0.34438664780888
H         3.28390941455779    1.97073778116034   -1.39901434050832
H         2.66790209578270    1.80378900905133    0.25736078984002
C         4.79442636128654    1.46072491377126    0.10278256412965
H         4.61970663321929    0.39029581589364    0.24573232393649
H         5.58403880501512    1.58291271183232   -0.64524272540025
C         2.83907010162944    2.86935082495603    2.66774923945658
C         2.02849283104880    2.00785229414505    2.96986868305101
C         6.95578551031928    3.81945957725847    4.63448686677615
C         8.06104669720173    4.49899913922080    4.13046440550174
H         7.92573083439589    5.37088942017352    3.50943178788846
C         9.33944146790128    4.04515709790196    4.39959839581425
H        10.18971733513114    4.58272936120312    4.00620460133274
C         9.53131741733105    2.90969364601751    5.16761702608074
H        10.53128493640449    2.56361692998569    5.38535980128515
C         8.43544018817055    2.21412179261598    5.65166082171247
H         8.57670891440867    1.31960212937571    6.24162260837788
C         7.15518038003941    2.66106552468902    5.38416600174294
H         6.30630943072185    2.11420061385479    5.77006414920886
C         4.41029028706581    4.04967560021521    5.86632669345977
C         3.05133764032970    3.76312276469650    5.85362286968744
H         2.54728859073583    3.66835083785675    4.90078029463396
C         2.36083466396069    3.59259052009782    7.04089168144408
H         1.30540570523226    3.36410405266810    7.02367022647773
C         3.02353593246303    3.71551312852605    8.24972264668962
H         2.48834660558793    3.57980908003948    9.17786739606851
C         4.37639595087718    4.01863417502062    8.26903112192220
H         4.89306194393854    4.12438836724485    9.21206676683510
C         5.06829952510889    4.19109945460890    7.08529731970879
H         6.12300166411380    4.43081457561836    7.10611301604479
C         1.47926824529139    6.33327506678398    3.22903212847946
C         1.00874263872853    7.61474457693848    3.50837816595659
H         1.66917060515763    8.46537185002631    3.40825987244668
C        -0.30279715655756    7.80297441913488    3.89800126330073
H        -0.66213536056689    8.79951097347514    4.11062319556703
C        -1.15903331545818    6.71831164736388    4.01386966258141
H        -2.18506580675071    6.87083751259567    4.31482965375996
C        -0.69538666946709    5.44354071847681    3.74292133428585
H        -1.35901451591800    4.59530206831612    3.83180521319166
C         0.61991046227288    5.25220375877773    3.35469538122286
H         0.99302417757268    4.26183474826025    3.14259462486844
C         3.36674462110282    7.48208229050275    1.56928903064742
C         2.34421755590966    7.65160313301290    0.63719948757526
H         1.47261391953056    7.01171213626413    0.68044210721164
C         2.43966241240383    8.63391195838762   -0.32991821644403
H         1.64086611962422    8.75861328125435   -1.04643172406319
C         3.55741197250734    9.45195695315804   -0.38046381065790
H         3.63268505037146   10.21799622048535   -1.13841144339964
C         4.57826273202820    9.28470148412633    0.54042128100595
H         5.45308747260031    9.91738252422817    0.49977902212318
C         4.48850291541589    8.30303764318783    1.51179952341637
H         5.30175986372088    8.16215164096385    2.20768731628585
C         1.97702457817573    4.51503194949520   -0.56508103678389
C         1.77429056246700    5.34198172324961   -1.66434044322370
H         2.61219604610766    5.67330301401981   -2.26044797384788
C         0.49353110337875    5.75096221506483   -1.99383900072091
H         0.34286809546638    6.39366129509075   -2.84929089125887
C        -0.58975147047095    5.34580134565676   -1.23267282833490
H        -1.58527111594640    5.67723174351840   -1.48878508059340
C        -0.39363048918352    4.51342047037430   -0.14193614034402
H        -1.23530623160105    4.19157893721971    0.45353911316794
C         0.88203735769117    4.09919936416905    0.18803391237679
H         1.04712077931984    3.45310235250232    1.03889992661207
C         4.68489777956699    4.61337916825960   -1.33561788535273
C         5.21884571954092    3.85081901072610   -2.36974982219769
H         5.00258722440038    2.79592350302266   -2.45439762308484
C         6.03904887880294    4.44204868923726   -3.31579110652232
H         6.45265488176466    3.83985372638466   -4.11239083548045
C         6.33336428195289    5.79305170015657   -3.24363994593463
H         6.98070811178366    6.24465817338014   -3.98112508359549
C         5.79400460418380    6.56162779987857   -2.22516631725053
H         6.01405531385894    7.61706501407860   -2.16140967881598
C         4.97681976870702    5.97529098047766   -1.27848428053704
H         4.56014079367577    6.56859906433476   -0.47886025255813
C         5.34365219883977    0.76101531229730    2.81907173213501
C         5.85650496234806   -0.47165177422573    2.41889627107931
H         6.35363060273010   -0.56346994898651    1.46196541894151
C         5.74270397895579   -1.57138534168770    3.24777754871581
H         6.13965718450799   -2.52522722809119    2.93192657892645
C         5.11861001342085   -1.45401983602958    4.48058668439813
H         5.02025568091869   -2.31922334104754    5.11918690973432
C         4.62734121113273   -0.22724931141956    4.89203285348989
H         4.14624555470183   -0.12814600463797    5.85432733194465
C         4.74541047403614    0.87653736922526    4.06567403840356
H         4.35268457227584    1.83728524540560    4.37340159974673
C         7.22016076419005    2.27199268777597    1.35157082521576
C         7.63968395889001    3.02206232139691    0.25460594088099
H         6.90916576968571    3.49386451287015   -0.38923829228826
C         8.98603300945374    3.18720175943275   -0.00391304642682
H         9.29933376921767    3.77760122261159   -0.85265986236205
C         9.92790704363984    2.60673365970112    0.82989402238482
H        10.98133167624871    2.73611196036052    0.62858304377764
C         9.51705091683442    1.86821528500400    1.92631055932667
H        10.24796264167465    1.41824119606737    2.58238845907493
C         8.17004549579285    1.70942348085934    2.19670622641064
H         7.85858624622529    1.14723828000249    3.06558754790199
C         1.06822209074511    1.09306760442085    3.43481639422627
C         1.03466671637392   -0.23570013243188    2.96044724110749
C         0.09514919097732   -1.10407717288401    3.46958614772364
H         0.04831889472429   -2.12806373973567    3.12929483641948
C        -0.81708283732716   -0.68124585638015    4.43679736721499
C        -0.79315083623683    0.63212567388217    4.90632062192935
H        -1.50934821623211    0.93547045649246    5.65448491835598
C         0.14185657362931    1.50420172010041    4.40814364456976
H         0.17693015998058    2.52347751556486    4.76418697695141
C         1.99992333468659   -0.68505302613096    1.90754426322527
H         2.15427527968114   -1.76017290297792    1.95788528474467
H         1.61212046027633   -0.44268288802179    0.91635037036725
H         2.95515103339938   -0.17895506274775    2.03340501282295
N        -1.77460339249016   -1.59668817913567    4.94823425617512
O        -2.56191485644943   -1.19442570714967    5.79096024353667
O        -1.76467789325225   -2.74077221492550    4.52126922349536

