92
CSD_code = NABCIC | q = 1 | S = 0 | Stoichiometry = C44H43CoP3S(1+) | MND = 7
Co        5.93087709609885    0.87128835543408   -3.89545405791514
S         6.21395422074109    3.15927089020723   -4.18066669775307
P         5.22746839433095   -1.06247939754927   -3.07491795378390
P         7.11138101477844   -0.17778137818928   -5.51946004141083
P         4.08708364587646    0.85793319668774   -5.19235320246639
C         5.17512237062371   -2.35568740361140   -4.38449860032806
H         6.16717071361822   -2.80831557711847   -4.43857799885970
H         4.47136881308734   -3.12973663068953   -4.06285167298386
C         5.93241398487236   -1.18300865702721   -6.52579083908270
H         5.52701167370922   -0.50330903538463   -7.28399061144553
H         6.50440168284902   -1.95501977898371   -7.04679557781567
C         3.58148092805637   -0.86044656478324   -5.62980860940852
H         2.91723781639176   -1.23431026987466   -4.84501755622990
H         3.02023751034709   -0.81702735508260   -6.56799544023907
C         4.75975303671082   -1.83624862575232   -5.77058420781445
C         4.27949456701437   -3.03747801476280   -6.59857421339481
H         5.03111043688355   -3.82410584947184   -6.61315804332094
H         4.07827590364166   -2.73829664982104   -7.62494438159669
H         3.36473201506052   -3.45216336739835   -6.18021389857009
C         6.26954412200725    1.59551961680527   -2.01025716283684
C         5.55589026106799    2.56620304218032   -2.72114671122746
C         7.46651478905301    1.11047457926051   -2.58436668469268
H         5.86351151834421    1.17664231672721   -1.09426468319263
H         4.64875367054019    3.02219368089958   -2.33910699696579
H         8.13940504444849    1.84548689833577   -3.01694060993269
H         7.97171961850788    0.29115941117316   -2.08599210770323
C         2.98032689980730   -2.34840799802468   -1.98883772196661
C         1.75313602839943   -2.37630318860840   -1.35424885087071
C         1.11941029414996   -1.19341080520742   -1.00284098358670
C         1.72251362577080    0.02089462328911   -1.27824375434679
C         2.94667286099185    0.05270083269085   -1.92375939007735
C         3.57769615841209   -1.12729511585469   -2.29818405591090
H         3.48098497271118   -3.27795520733552   -2.22209108331662
H         1.29356973448430   -3.32495153467038   -1.12183223684684
H         0.16358682341844   -1.22232923768543   -0.50326763007856
H         1.24305590457289    0.94482821726523   -0.99305540867500
H         3.41791884507871    1.00125475544465   -2.13756376414565
C         7.42601138233564   -2.48033977630156   -2.04082391498464
C         8.19639919415784   -2.99778967000647   -1.01566011143592
C         7.78785782335278   -2.86381016339035    0.30104407292725
C         6.60593455349319   -2.20140905290259    0.58988982152566
C         5.83192777535029   -1.68181964114054   -0.43109441017489
C         6.22501960173737   -1.83370775952621   -1.76048036993915
H         7.77380754884086   -2.57473652170188   -3.05732748890251
H         9.12179054922522   -3.50194410674727   -1.24972429651839
H         8.39042342852067   -3.26829065913387    1.09929773366085
H         6.28558106138153   -2.08651796508120    1.61415939917295
H         4.91190253098392   -1.16618093879472   -0.19289007452646
C         8.57338643828862   -2.65440490502327   -5.47894135578618
C         9.70248744067315   -3.39378112319764   -5.16587300166775
C        10.76973974620535   -2.80332998027381   -4.51236594050726
C        10.71185719837777   -1.45912654784456   -4.17984215508176
C         9.58797779157346   -0.71966167078528   -4.49111456773791
C         8.50095399225520   -1.30852475995533   -5.13503548615315
H         7.76254073095078   -3.15112377035179   -5.99160979664701
H         9.74478188557079   -4.43782757144326   -5.43808893003918
H        11.64494221504669   -3.38602054549798   -4.27055643314487
H        11.54479040308536   -0.98796901398640   -3.68081579807425
H         9.54823224690674    0.33048035410987   -4.24348243840586
C         8.63575481984616    1.95254279695151   -6.43302342155112
C         9.38193626717123    2.66583494457755   -7.35239243712963
C         9.51635667519226    2.19505192453041   -8.64779728570920
C         8.90719927895084    1.00687895860611   -9.01554687902422
C         8.16249266008135    0.28705635462232   -8.09846627310781
C         8.01246676980306    0.76358391779040   -6.80022125042308
H         8.50923858454274    2.33830618715638   -5.43152604141278
H         9.85382664429062    3.59090927648175   -7.05831084468692
H        10.09455735319053    2.75148249190843   -9.36927787751569
H         9.01391261776678    0.63426572439615  -10.02324366604909
H         7.70635137571093   -0.64101681436816   -8.40607156826787
C         1.35381912891161    1.00056422219802   -4.34411684265059
C         0.24802092742761    1.73392678758719   -3.94819165046267
C         0.32338183094919    3.11097211003030   -3.82797679586888
C         1.51083953739343    3.76570054757138   -4.11670774621324
C         2.61525609373033    3.04118144079323   -4.51944142252134
C         2.54740303525636    1.65181679745348   -4.63113904450315
H         1.26598454163196   -0.07221780006864   -4.42731622321110
H        -0.67806422194528    1.22200150733556   -3.73354266847976
H        -0.54253328059495    3.67401675345701   -3.51564368686863
H         1.57295115974666    4.84011522428350   -4.03297121001950
H         3.54062385857051    3.54765666177767   -4.76359582110447
C         3.01191057162448    1.58754296287326   -7.64485734985387
C         3.01500625717727    2.17232125927264   -8.89586855313840
C         4.14479018576965    2.83279705857022   -9.35586814946124
C         5.26551007466213    2.92330920223624   -8.55002626517035
C         5.26500930879733    2.34189025343242   -7.29354023617949
C         4.14975870401001    1.65332974667167   -6.84044857469304
H         2.11761673988298    1.09598785726247   -7.28526560194240
H         2.13068031063192    2.11902222416421   -9.51265282076449
H         4.14201783143433    3.28645383548316  -10.33488939905314
H         6.14380043705818    3.44991261545564   -8.89075470949324
H         6.13159138653541    2.43995598494614   -6.65931870023425

