90
CSD_code = NABDAW | q = 0 | S = 0 | Stoichiometry = C33H52N2O2Pd | MND = 4
Pd        6.46260935992632    6.61081393858865    7.56024189693189
O         7.78902410440795    5.15242734503400    7.31845859809864
C         7.22229096738890    3.97327797955871    7.29544383033837
C         7.96460004153917    2.77966109410225    7.08790110454107
C         7.29304822948715    1.57244648699319    7.11277960888136
H         7.86411428544305    0.67597636804429    6.95579588511163
C         5.92263867930180    1.44798039069765    7.33961629708064
C         5.20382544259691    2.61528714523142    7.53896281814337
H         4.13969465074259    2.58270243149589    7.73388848356937
C         5.83914852144333    3.84272723718521    7.49842833192087
N         5.07404860489486    5.07828227879176    7.66274823517103
H         4.47772268013512    4.96781597206479    8.48764915328913
C         4.20698054523263    5.31581115146698    6.49327643714776
H         3.52685394283473    4.46268812964215    6.35788582032148
H         4.85907308540142    5.36173970390070    5.60731742555639
C         3.35165301488476    6.60049804501706    6.57043719399895
C         4.20318966442793    7.88640357898094    6.47483461978213
H         4.85390714023189    7.83068596280962    5.58846990931762
H         3.52025272050729    8.73563790782878    6.32939417686422
N         5.07150826415361    8.14225159001381    7.63948357236557
H         4.47631281492089    8.26434969943483    8.46359707234537
C         5.83386021823532    9.37633501654210    7.45397866177239
C         5.19715652113779   10.60334577825167    7.48100267481320
H         4.13471833464582   10.63737713299807    7.68474618875439
C         5.91256942518698   11.76836000493560    7.25743012858666
C         7.28005499896557   11.64167479778508    7.01468854886886
H         7.84770588457809   12.53600323052110    6.83463229778300
C         7.95291551516369   10.43495067480202    7.00173936660428
O         7.78503376621974    8.06729757344096    7.28635321387073
C         7.21553848522708    9.24453551320947    7.24246680586774
C         9.46542978316176    2.87824013831734    6.85608571592081
C        10.12715897755132    1.51549048367509    6.63122998212774
H        10.00881137869705    0.87027619167437    7.49917906437998
H        11.19288798145057    1.66110024445099    6.46589810754442
H         9.71751115542102    1.01694953661466    5.75512486172456
C         9.72090905593087    3.74754770692622    5.61700680534243
H         9.25612864697513    3.30058776048137    4.73958353849703
H        10.79005022898648    3.83774502998211    5.43709200246913
H         9.30995372669138    4.74186138613989    5.76697852450682
C        10.11158955238710    3.53255915125989    8.08493449770519
H         9.70130073164641    4.52675048760548    8.23669134451134
H        11.18679354664406    3.61680367456185    7.94196025747407
H         9.92381419471688    2.93362653715603    8.97447395023114
C         5.20128031178789    0.10816365075387    7.37030831434550
C         4.10901132253890    0.09951516844102    6.29039324486534
H         3.36154691866866    0.86664344881285    6.47530620760695
H         3.60563682871742   -0.86509545108533    6.26962240266089
H         4.54955685708557    0.28137190937062    5.31239437475294
C         4.56285598741658   -0.09085351744801    8.75240426204333
H         5.32815878882996   -0.05853015996540    9.52477338679916
H         4.06095422354766   -1.05528045067191    8.80161226649939
H         3.83121672230331    0.68403416646966    8.96634270133703
C         6.13611585840388   -1.07422047355540    7.10406343309054
H         6.60439557326672   -0.98878405097232    6.12648391275550
H         5.56488970210832   -2.00063821414319    7.12386209000468
H         6.90898156505216   -1.13981720662962    7.86588878959343
C         2.49487301458694    6.60816777797320    7.84322205568404
H         3.09972675730453    6.61613933958870    8.74882910211191
H         1.85582894226415    5.72789298756069    7.86959334726227
H         1.85279432557026    7.48650885620867    7.85639235363051
C         2.41841513094812    6.59039784474475    5.35179594915923
H         1.77808716125362    7.46892777702825    5.35237587703650
H         1.78186059321981    5.70919951906486    5.36359948091294
H         2.99190489517210    6.58576330938405    4.42829617656064
C         5.19026467609604   13.10781042796562    7.27982840177780
C         4.08239763571625   13.10130800296210    6.21587828188430
H         3.57937608880163   14.06588071332884    6.18810162865710
H         3.33701108612032   12.33799455109062    6.42329116559199
H         4.50799607251012   12.90441638150252    5.23420389457494
C         6.11981947697772   14.28730383105921    6.98415601429025
H         6.57331637364621   14.18977399000849    6.00070528832693
H         6.90404130070388   14.36299691106059    7.73331326477909
H         5.54798745489327   15.21343189189153    7.00109101295880
C         4.57200189258971   13.32444647791743    8.66845893838497
H         5.34931246354369   13.30898871747374    9.42925013755448
H         3.84894840248856   12.54828024139051    8.90578950880677
H         4.06456229311936   14.28632309630514    8.71035871706895
C         9.44978420387920   10.33317674364648    6.74670318731392
C         9.68431556917187    9.43880374569104    5.52125679079226
H         9.27687408731660    8.44753260221995    5.69854310272502
H        10.75017981640338    9.34511157195822    5.32456031660682
H         9.20404214186738    9.86750909450327    4.64306253006686
C        10.11910735216431    9.70512110263215    7.97677255245585
H         9.95047974319852   10.32398275373166    8.85637959174824
H        11.19105950818915    9.61469135104200    7.81453464708913
H         9.70980305421467    8.71570477620888    8.15871552044757
C        10.10593606041380   11.69136256317402    6.48178894412017
H         9.67986165525985   12.17079413416817    5.60288856825614
H        11.16876713923517   11.54334736594212    6.30048812280904
H        10.00217410191095   12.35471824195099    7.33783313208417

