55
CSD_code = NABDOJ | q = 1 | S = 0 | Stoichiometry = C25H23N4O2Zn(1+) | MND = 5
Zn        1.22831897935143    0.59315542547390    2.67183736394857
N         0.83943330510092    1.06488975540859    4.68207614190155
N         3.22290952155493    0.97574451415071    3.49765718716435
N         1.92956849355050   -1.33544534179810    2.89918341682207
N         2.27886790872050    1.11714178499094    0.92666582141178
O        -0.58764507036033    0.33762264071223    1.99264254450031
O         0.17510806439483    2.34958871955189    2.31979951722974
C        -0.31271326925527    0.89179101432117    5.32019842737050
C        -0.64482868170539    1.59801655934522    6.46220231730176
C         0.26365562216767    2.52219800032495    6.95703045959517
C         1.46587960095676    2.69832641118971    6.29229038826130
C         1.71562056622005    1.95212247312993    5.14847556704562
C         2.97900861884429    2.13176056839785    4.34908615292339
C         3.58175235911626   -0.21556326811164    4.25912928190422
C         3.05674762836409   -1.46244046968797    3.59384890697894
C         3.68902944086722   -2.68995364936852    3.73819502913317
C         3.12418036402283   -3.80892230780893    3.14697990182402
C         1.94527318402160   -3.66440042661659    2.43071696191578
C         1.38332690342788   -2.40367351474009    2.33116602051015
C         4.16848682003850    1.25331453440049    2.42250481557398
C         3.47432331524957    1.65824486451813    1.14662192515875
C         4.08676300314943    2.49244513895008    0.22173300276591
C         3.43271819445436    2.76761506732360   -0.96794174669473
C         2.19516117484266    2.18592368735610   -1.19771233649044
C         1.65583341105591    1.37035553495900   -0.21933958637465
C        -0.76115225910703    1.59251014038038    1.96892619178588
C        -2.05722867128146    2.14356266539564    1.52262461852897
C        -2.24441318992365    3.52245347197788    1.46762751776661
C        -3.45669816172255    4.03604028377251    1.04812209546848
C        -4.48421708884087    3.17938021335247    0.68333182030510
C        -4.30117713217350    1.80603439098124    0.73734929968683
C        -3.09129592808251    1.28566722910012    1.15544987133192
H        -0.98373305405091    0.16204290891901    4.88969684583299
H        -1.59146463580157    1.43105822436299    6.94926209096397
H         0.04005147769545    3.09593297913508    7.84306757705708
H         2.19619648137039    3.40962906416605    6.64538290450485
H         2.82954725189736    3.00157241268515    3.70150423497435
H         3.82794053720940    2.33662490230347    5.01803114450555
H         3.11076924005760   -0.15558806320941    5.24509250864188
H         4.66574677616339   -0.29209006975233    4.41438832099173
H         4.60332135207589   -2.76690399571468    4.30594401574792
H         3.59632772852218   -4.77423878344645    3.24466253276262
H         1.47314434381189   -4.51045119401885    1.95901056655249
H         0.46606070301576   -2.22532698139350    1.78958757583752
H         4.71990889325151    0.33406981552281    2.19618867788293
H         4.90004483874384    2.01672138329494    2.71475539619617
H         5.05472940189195    2.91974373059263    0.43293967150068
H         3.88080725910210    3.42164354972033   -1.69987152442399
H         1.65530090359759    2.36616447602076   -2.11273557104151
H         0.69134074953972    0.90045285207541   -0.34787232118993
H        -1.43020326721681    4.16955554638846    1.75643573914282
H        -3.60399442720119    5.10458231819704    1.00452067928737
H        -5.43044879029281    3.58335565831665    0.35616965773913
H        -5.10408302670731    1.14299117501532    0.45261221736251
H        -2.92750776368835    0.22005197948607    1.20504816258910

