90
CSD_code = NABDOL | q = 0 | S = 0 | Stoichiometry = C41H44P2PtSi2 | MND = 4
Pt        5.02024280978464    1.55621773072338   -0.73878212899229
P         6.92589596870452    2.18981360366530   -2.06528360017291
P         4.61428575738479    3.92168942413608   -0.92880122092979
Si        5.82403423023417   -0.61596724760352   -0.40785926075550
H         5.14881258511551   -1.71968681803948    0.34435504102123
Si        2.96512449927234    0.98525245119357    0.26026186858577
C         7.19318983116650    4.02427964575856   -1.94124950629934
H         7.62795854172484    4.24069300153759   -0.95979547827761
H         7.89548992778361    4.35624752189329   -2.71255435573669
C         5.84813036726915    4.71720266834999   -2.07412667454620
H         5.47145952094186    4.61314745493572   -3.09674985740590
H         5.92486686133837    5.78557683759995   -1.84984980280853
C         8.62425703356575    1.60190889924973   -2.32418860923796
C         8.89802869924105    0.62743598523848   -3.27849862344220
H         8.10887540819504    0.27388817057903   -3.92621438112390
C        10.17521487615686    0.11258712101010   -3.39909983280410
H        10.37915306207791   -0.63950185080857   -4.14702834551722
C        11.18653262664783    0.55105848897606   -2.56098384219817
H        12.18156794753283    0.14109689156020   -2.65160740092562
C        10.91826287135664    1.51510941830237   -1.60320380330878
H        11.70348332144271    1.85725473702162   -0.94499235295148
C         9.64456344790713    2.03595805835239   -1.48212299592187
H         9.44151406059625    2.78240850245385   -0.72794902578186
C         6.19851788861786    2.11221114121147   -3.73326859161966
C         6.87893080406250    2.50931193457543   -4.87988407772843
H         7.90558838564169    2.84373964098210   -4.81015813643915
C         6.24520689320107    2.46477448107797   -6.10787985731277
H         6.77615257902376    2.77002276450415   -6.99812770705142
C         4.93190814975897    2.02995397040228   -6.20034999485506
H         4.44355508718040    1.99637519721434   -7.16323670451326
C         4.24828679573749    1.63905887067414   -5.06103305369554
H         3.22474247773430    1.30108817257244   -5.13172612561558
C         4.87951954123042    1.68040470183092   -3.83116211295632
H         4.35291694893111    1.36778866986510   -2.92210157546974
C         3.17322562548312    4.94741662107008   -1.36678927402264
C         2.51245864087156    5.78048775721754   -0.47239316572456
H         2.86664748164875    5.87355532370108    0.54430284189889
C         1.39302806494372    6.48450591840088   -0.87860272956308
H         0.88689304563595    7.13403594005024   -0.17932078033267
C         0.91603135135800    6.35416512811899   -2.17194124686246
H         0.04086147631316    6.90450400615666   -2.48393416566999
C         1.55464359976722    5.50416484510249   -3.06082107624014
H         1.17498040514146    5.38613619181989   -4.06537978738751
C         2.67211188434186    4.79914781059068   -2.65819930313526
H         3.15650731633766    4.11484886510202   -3.34388389940381
C         5.20100152135317    4.57799109671292    0.66447961455194
C         5.47120449944668    3.64954343700164    1.66527974451957
H         5.27356015791036    2.59310390688713    1.47406753121410
C         5.97636304316728    4.06213926823433    2.88532942865266
H         6.18979115114307    3.33337615498698    3.65311711736079
C         6.20694170957908    5.40796266274468    3.11690419666818
H         6.59804295171615    5.73562072631618    4.06888793382471
C         5.93547362288483    6.33880295105189    2.12567301057333
H         6.11370546102606    7.38896269737534    2.30791159745994
C         5.43925385514195    5.92914409137152    0.90175530451199
H         5.23080532654355    6.66324403356481    0.13466844060773
C         6.11452023251478   -1.41701152989272   -2.12169761885844
C         5.05202115923723   -1.50442148747717   -3.01599884133290
H         4.08246327714525   -1.13690243941567   -2.71115975042214
C         5.21148956811663   -2.05671769452945   -4.27294360165590
H         4.37338582048271   -2.10738872109772   -4.95453997233447
C         6.44688634738684   -2.55024401291630   -4.65907565247318
H         6.57727639645322   -2.98620325811002   -5.63983299979728
C         7.51201502709345   -2.48471084055699   -3.77809982617463
H         8.47840452954463   -2.87409389750385   -4.06894055619478
C         7.34534883389369   -1.91606144399508   -2.52639074166035
H         8.18989649506339   -1.85416310698069   -1.85499112661102
C         7.50495539164719   -0.46609121311204    0.49034154266849
C         8.29321020228855   -1.58172181807135    0.74204341626372
H         7.93725834207475   -2.55672602723850    0.44065989227172
C         9.51737559236570   -1.46676117227057    1.37598811097440
H        10.12169286130813   -2.34626556632119    1.55153004147997
C         9.96804218545607   -0.22601198636546    1.79459102825899
H        10.92227717666071   -0.13438042146798    2.29432967949026
C         9.18367120189903    0.89337622103362    1.57837018617319
H         9.52095747359835    1.86324166611544    1.92004214155496
C         7.97074840726546    0.76656826389887    0.92640625925669
H         7.36212308624419    1.65147736824460    0.75826530991666
C         1.76332733855312    2.49559091850713    0.38389864105627
H         0.85733907360478    2.22093413201120    0.91475932458130
H         1.47281674210979    2.86227411153954   -0.59585416706375
H         2.22330462011582    3.32001129879439    0.92239422700202
C         1.94617420487361   -0.33495021709991   -0.71219134241772
H         0.97169014092479   -0.46738911900950   -0.25292151309231
H         2.45184779114476   -1.29424557316469   -0.70439108393591
H         1.78249443176157   -0.05005469691363   -1.74719444370430
C         3.04665153729251    0.35336586374222    2.08270969894520
H         2.06041897867934    0.04573259728790    2.41603574826885
H         3.39790902349441    1.12156359523002    2.76464914568290
H         3.71080451144675   -0.49857946735554    2.17334963706410

