94
CSD_code = NABGOM | q = 1 | S = 0 | Stoichiometry = C43H45CoN2P3(1+) | MND = 5
Co       15.27570224146072    5.94950353104263   29.16316131971937
P        15.76748791227418    8.12742051217276   29.18382781980510
P        17.11648890109876    5.65646717809791   30.35627861839277
P        16.56211242785523    5.59856303225683   27.31406106601566
N        13.51032467020978    5.56642607305473   29.90996897013440
N        13.94015803867139    5.05198414360606   28.77207873985269
C        17.56567431517491    8.53315112521673   29.09976586168096
H        17.67104542962798    9.43693919856569   28.49123865677252
H        17.91211756435474    8.76367177665439   30.11078879351537
C        18.65810151098112    6.31886701690973   29.57724645988500
H        19.29735844963932    6.71784450328125   30.37099577493252
H        19.16961765621731    5.46807227557621   29.11923668094746
C        17.88848913946182    6.87755393741542   27.20174287954002
H        18.70357805659509    6.46624244649795   26.59956278815657
H        17.44819908812339    7.71151849904920   26.64204257124806
C        18.45202259232356    7.41945909025968   28.52694484610666
C        19.82754138563853    8.03690841500649   28.22637600828499
H        20.54127224538298    7.26910370826782   27.93462761635907
H        20.22182553088646    8.54960215908562   29.10156535811926
H        19.75401703038219    8.75894745526897   27.41583839531600
C        13.88369247583203    9.76677833850295   30.35820884178479
C        13.33790849770759   10.56520067135263   31.34481840704129
C        14.06468193875988   10.84642318360350   32.49081862778510
C        15.33699763353033   10.32234368794746   32.64264884752285
C        15.88662270440062    9.52138209090212   31.65734725625393
C        15.17073891670444    9.24652481450878   30.49663427887945
H        13.31638234784227    9.55755932110284   29.46094299923461
H        12.34511797452290   10.97019088537722   31.21884930941007
H        13.64059263172231   11.47133099076168   33.26139270361108
H        15.90807057933291   10.53495467115872   33.53383898132762
H        16.87597557659388    9.11623773075092   31.81027663218309
C        14.38443633461071    8.30794323216245   26.76777406729757
C        13.93116032033621    8.94631751896961   25.62634726641803
C        14.21443984911960   10.28654190177563   25.42871036774924
C        14.93980190441669   10.99073248648511   26.37915974091445
C        15.40050284134985   10.35470221535012   27.51568415565762
C        15.13621975418363    8.99988082832752   27.70780905269470
H        14.15729725500358    7.26237313588395   26.93296005849168
H        13.35933274229571    8.39452075764640   24.89568163589161
H        13.86438573666344   10.78835862905160   24.53989387910289
H        15.14530339082392   12.04037089712900   26.23264472706733
H        15.95017061658252   10.91198839811003   28.26265425367155
C        16.66176705084030    2.92139808758119   30.28524534176644
C        16.97521791479387    1.58426558052234   30.44609702576937
C        18.22848549323330    1.22051489799417   30.90594212538505
C        19.16622717660180    2.19742444165869   31.20035888186566
C        18.85463708764479    3.53468893823581   31.04412551700203
C        17.59391847919479    3.90680439166665   30.58546931073945
H        15.69528632224271    3.20909268845486   29.89016770389506
H        16.24366805555234    0.82755817245604   30.20693703774704
H        18.47844573100348    0.17838796373730   31.03136909417637
H        20.14663102955213    1.91561040166599   31.55412439345532
H        19.59971663819979    4.28096637190816   31.27497009136100
C        15.93052353022235    6.60035057598900   32.64373706937863
C        15.84670112840682    7.03963519480207   33.95151680737242
C        16.99917129925632    7.16355549985555   34.70869404199209
C        18.22763247704819    6.84518622621255   34.15197245998707
C        18.31177121497971    6.39948473622897   32.84525663569454
C        17.15883338323443    6.27531411259455   32.07579438450667
H        15.03689451578656    6.52611110263680   32.03744384337553
H        14.88694828420680    7.29217717585656   34.37694411732267
H        16.94298140813027    7.50806166222862   35.72967674600343
H        19.12756886803949    6.94195558685675   34.74057784212314
H        19.28199062845731    6.15313281699732   32.43997135012822
C        18.77375420652728    3.76221313121276   27.13801204084950
C        19.26408402569191    2.46879009594043   27.06793434082785
C        18.39829363756037    1.39025886416695   27.04746853971553
C        17.02958357207310    1.60427670480138   27.09379855895224
C        16.53771505071467    2.89073953506580   27.17969803291874
C        17.40457683468729    3.98222312472258   27.20484875708252
H        19.47637257133781    4.58296541443737   27.12875534665314
H        20.33071776588510    2.30615372011084   27.02238244515938
H        18.78888367498218    0.38603276744373   26.98990911059908
H        16.34994528817672    0.76609099661169   27.06606890136444
H        15.47230919004609    3.07099820969091   27.23343337809005
C        14.56576378447919    5.15793761023908   25.46609192205447
C        13.99036463098819    5.10720889495259   24.21022007002812
C        14.71361263916788    5.51531111613402   23.10140789673309
C        16.01469575842555    5.96436151268670   23.25363080551362
C        16.59777427929839    6.01226142432491   24.50768642534685
C        15.87056508464144    5.61713980483830   25.62472475166621
H        14.00475548558650    4.85462983961709   26.33999134541067
H        12.97717825316043    4.75192477250873   24.09509359135425
H        14.26597786216776    5.48142545510199   22.11986440637488
H        16.58242367333048    6.27607833520693   22.38972622921167
H        17.61713795900568    6.35401799335042   24.60125486227313
C        12.43589601739267    6.56585893759664   29.82162176838709
H        12.55045829233900    7.14257747844680   28.90394848017684
H        12.48061184982099    7.23753671604660   30.67876935779870
H        11.46420669574332    6.06433925952505   29.80719172119744
C        13.24632663753187    4.64286828764318   31.02338085431449
H        12.38532289159163    4.01461557051709   30.77782273877352
H        13.02437425999658    5.20826197735171   31.92703846025434
H        14.11093420232749    4.00582335942820   31.20418772509860

