84
CSD_code = NABGIH | q = 0 | S = 0 | Stoichiometry = C33H42Br2N4O2Pd | MND = 4
Pd       10.03627601720766    6.76855256846603    4.35591812300597
Br       10.92392596976675    8.20106057602248    2.60182747611772
Br       11.29621381332005    7.83925941488951    6.13198830816871
O         5.02463179388001    6.41954346457515    3.78104389318731
O         5.16670898813843    7.45852680122164    5.81265267918911
N         8.02363088781862    6.65219214877835    6.44417226123246
N         9.30415203189752    4.90370763490716    6.69171653303916
N         7.99187359236862    6.07445128191898    2.25486274704517
N         9.81649668540507    4.89420246658970    2.06479084380546
C         3.02420988229159    7.38114036711602    4.67332506708471
H         2.42199086132620    6.77043254318572    4.00837404868479
H         3.25000372686867    8.32434882803944    4.18306337979612
H         2.47962572046362    7.57653331546113    5.59136893446396
C         4.05951879835076    5.33322548877307    5.73560337681154
H         3.42679877293731    4.69401480367071    5.12779703735597
H         3.57075674166356    5.54596556384272    6.68098413705315
H         4.99854034818682    4.82268850877640    5.93660710189214
C         4.32455420114117    6.64769388988266    4.99646319294742
C         6.38442280874725    6.70686782569002    4.01006180370541
H         6.87743415906564    5.81713633410045    4.44157854205686
C         7.11005384179695    7.10979227446054    2.72333116455640
H         6.37149838832912    7.33053801845688    1.95214650870557
H         7.71474309604579    8.01219849757350    2.90615028574769
C         6.31114727061498    7.81572670925676    5.07196796534245
H         6.14440506609241    8.78885618457426    4.58051441354163
C         7.55214837503562    7.92386163594231    5.96051859394161
H         8.36685410904089    8.39777251360096    5.37684357691380
H         7.31910733955631    8.56158529245484    6.81648349966129
C         7.83641491367153    5.30786281969305    1.12055561330224
C         6.79487293728675    5.19924233324746    0.21436777043748
H         5.88758366201147    5.77113375997140    0.32659661474401
C         6.96090318036767    4.31653701209397   -0.83541571459351
H         6.17224906072808    4.20362727024346   -1.56298960782649
C         8.12664785561344    3.56792567206616   -0.97283370714697
H         8.22011193276446    2.88942767219480   -1.80680279049336
C         9.16710239694209    3.66845345812700   -0.06864743234584
H        10.05677996348069    3.07471097460750   -0.19731492966074
C         9.01670029434428    4.55166671262338    0.99100937110634
C         9.18239596278812    5.80556923175882    2.82922518546042
C        11.21176438670890    4.54253438830111    2.27454078593565
H        11.52896949108832    5.09986640195233    3.18684938416467
C        11.41333765802924    3.05019708248355    2.52764521346655
H        10.76889437855572    2.72365924343915    3.34750966209355
H        11.13909804205171    2.47762982592241    1.64043831834689
C        12.88232204921891    2.79503867261506    2.85953099546067
H        13.14944559554784    3.33915837793036    3.76913858720759
H        13.04126847674091    1.73007084678526    3.04219988662575
C        13.77812228906799    3.26940001099404    1.71845154678418
H        13.55682936533823    2.69097859791911    0.81810107620339
H        14.82404911954234    3.09629108053536    1.97669423618070
C        13.55049021676659    4.75244981628576    1.44077485707382
H        14.17500252860108    5.07861847988626    0.60844767035010
H        13.83335572943287    5.33871782334560    2.31749959789734
C        12.08502414894694    5.01909830461194    1.11219935248157
H        11.92815891318116    6.08741011041841    0.95514650922535
H        11.80929572836298    4.49556077315578    0.19565845014095
C         9.04820289065684    5.95853335218927    5.89715616738110
C         7.59417999244798    6.02374759957183    7.59124151302161
C         6.56818196587083    6.32573889696756    8.47100965165591
H         5.92409989477585    7.17354283626220    8.30483580927357
C         6.39632557470582    5.47846725080357    9.54817619331509
H         5.60789803019652    5.67451196378403   10.25816911626566
C         7.22496202009183    4.37580569964992    9.73830891157377
H         7.06586075678017    3.74022315139632   10.59598686962850
C         8.24631294379394    4.06919744515744    8.85856510467993
H         8.87123706846174    3.21013618654035    9.03850161439091
C         8.42709579677116    4.90353028942638    7.76395344414482
C        10.46739640939022    4.05340208501328    6.51255288905303
H        10.93913310502958    4.38989780362903    5.56914199846930
C        11.46532439276817    4.27789000261069    7.65166026437604
H        10.99636897910593    4.03917567002239    8.60729749589062
H        11.75144288332360    5.33135031378595    7.66981933566394
C        12.69597537083898    3.40105890049416    7.45275796131727
H        13.20390218242676    3.69090920432979    6.53064087157221
H        13.39075308998398    3.55987328991116    8.27816835388783
C        12.29530954201765    1.93128027808155    7.37632970967343
H        11.82413762799852    1.63264137194242    8.31565982316193
H        13.18111173248462    1.30973309691508    7.23542957457209
C        11.32443059305722    1.70890367446929    6.22082569708963
H        11.82749172340374    1.95454981687671    5.28536610350579
H        11.02727403269199    0.65920419715989    6.17505984345603
C        10.08010961599425    2.57958594495333    6.37999716943114
H         9.41549587517755    2.45204367836413    5.52048278652059
H         9.53417234531766    2.25925429462956    7.26737372925112

