41
CSD_code = NABHAC | q = 0 | S = 0 | Stoichiometry = C14H15NNiO10 | MND = 6
Ni        1.10066915986893    2.61503730827541    5.90678534098861
N         2.96369012028037    2.66313024523778    5.08013577410510
O         0.55606507686210    2.77847276667966    4.05735363481113
O         1.29917416477160    3.04249936544911    1.98583240721411
O        10.06867007416164    4.39117265949593    4.22752300282470
O        10.98018025728032    4.27053327553875    6.29199424168173
O         9.32483509468673    0.50486579531816    9.01602137263109
H         9.32853088161278   -0.12130893176728    9.75655006346905
O         7.15903503844711   -0.01905037548644    8.93687848729889
O         0.74799973152817    0.25391261243958    5.93639738586738
H         1.55625102850101   -0.09902457890387    6.32095780283022
H         0.77336054807169    0.06964466567861    4.99093227338019
O        -1.07890870674242    2.46785543813870    6.34732962625901
H        -1.14542784445500    1.51360803723245    6.47638541005746
H        -1.34246255445647    2.62714602078148    5.43053342373464
O         1.69112101618962    2.54528274310750    7.93077032829279
H         1.89378801324444    3.47240750770958    8.10385832015705
H         0.90232893192717    2.33253479161018    8.43983170013214
O         0.71588343580609    4.89624562384651    6.41489282481769
H        -0.24457920139281    4.89369725115268    6.49246672728754
H         0.92442201577597    5.32229363041719    5.57717696946697
C         1.47931947423820    2.89824418677833    3.17805802911915
C         2.89122513145665    2.83653063320620    3.75232426310406
C         4.02752084613958    2.94034411910474    2.96389085179020
H         3.90227735492303    3.08092564983992    1.90155878280648
C         5.27029795648737    2.85258554696614    3.56145885994368
H         6.17168620245592    2.91217093533818    2.97068269745292
C         5.35039451890349    2.65983295161986    4.94251733329083
C         4.15264626151501    2.57881333809047    5.65594527495471
H         4.16362080612505    2.44903240170403    6.73004588696602
C         6.63606980032093    2.54072729024562    5.63790622933736
C         7.73587641174815    3.29586364612797    5.22568693927908
H         7.66233251578658    3.98551649976478    4.39843265259953
C         8.93964969103317    3.18282571779201    5.89165353943786
C         9.09538577195000    2.32475306718187    6.96309983898154
H        10.04254047763712    2.26270250853679    7.47485317292301
C         8.00648401724989    1.55530187492865    7.36750300659689
C         6.78500181947873    1.67075962005746    6.71159484998777
H         5.96899065357594    1.04665529546057    7.04453580921641
C        10.17257761020663    4.07330364871177    5.40078506544362
C         8.09637639682960    0.60755521666275    8.50245979944567

