55
CSD_code = NABLIN | q = 0 | S = 0 | Stoichiometry = C28H21NO4Pt | MND = 4
Pt        8.51011754151602    9.43716542920879   10.56652159385765
O         9.31275180834036   11.02507272499498   11.49132178369052
O         9.38835551891761    8.18673317213288   12.06144750849842
O         7.59440624101033   14.67478158840817    8.51600098057512
O         5.41928392148910   14.90757723704604    6.33634170461010
C        10.48208403172297   12.38832503710096   13.01462620212385
H        10.10419069546341   13.15399065779079   12.34262159860224
H        11.56897957473213   12.42833120177220   13.03382194903349
H        10.11592778423378   12.57874549511194   14.02095953278820
C        10.02017624909820   11.02655702242511   12.54293518181010
C        10.41592597354749    9.92541661310890   13.30037060596806
H        11.02558584851330   10.11559856500647   14.17027163243401
C        10.08838371817545    8.59473181034204   13.02442303433760
C        10.62852269627722    7.54704433805437   13.97553580536188
H        10.30992681706401    6.55697778926618   13.65906445037314
H        10.26487030947518    7.73720453126860   14.98301813785931
H        11.71556349001743    7.58668213575568   13.99298517238447
C         7.66408838619844   10.49697753201836    9.11727655819337
C         7.68338679425608   11.87057308682959    8.93307959465668
H         8.19245705061088   12.51150259875096    9.63884527579495
C         7.05345662531486   12.46317394459990    7.83682458445510
C         6.38468127850278   11.66669606000454    6.90156023805358
H         5.89140737571839   12.12070852347196    6.05472103989131
C         6.33879694608621   10.30022585990156    7.06959067532098
H         5.81265479510133    9.69431539263303    6.34687719056524
C         6.97178414583519    9.71193906430569    8.16611228484492
C         6.99036534281399    8.28577125897555    8.45634324282870
C         6.37426050309792    7.28961362446636    7.70283618986596
H         5.82750791898101    7.55500303040041    6.81274567046017
C         6.46475367616856    5.96876646988817    8.09981714911011
H         5.99067593864483    5.18880144785096    7.52405740241659
C         7.17621619280496    5.66552173987872    9.25359307696022
H         7.27035526471661    4.64858743810980    9.59852751974437
C         7.76730448814713    6.69483413529672    9.96095154517557
H         8.33122861930394    6.50304136879168   10.86414319060554
C         7.12508802352138   13.92923357870786    7.68513515488313
C         6.54496051092884   14.46082756901596    6.36848860773072
C         7.47316763010704   14.35853727869151    5.22272700505384
C         8.82514679726916   14.25058028730778    5.48733661630165
H         9.17522400439687   14.25745687059264    6.50836830467103
C         9.76451953083670   14.17009232884350    4.45645275058558
H        10.81402163647713   14.10406741991297    4.70068642756705
C         9.35201924456426   14.17651964370279    3.15237555689867
H        10.07092166756526   14.11725063858515    2.34747091881215
C         7.98274234797333   14.26222363209550    2.82927901874621
C         7.55467061815271   14.25708264181751    1.48477367772406
H         8.30179125479846   14.18438615631084    0.70714448877083
C         6.22761755033353   14.33804809092950    1.17143913719291
H         5.90682119599750   14.33493243399671    0.14007161986799
C         5.27316238901206   14.42062565567192    2.19489351354475
H         4.22549364015435   14.47780285902654    1.93875614402000
C         5.65475704938455   14.42930796389459    3.50911308407579
H         4.90903836325757   14.50157832593607    4.28371237184212
C         7.01639666164549   14.36012501936193    3.86929542045241
N         7.68330632172337    7.96963368062810    9.58221087800534

