30
CSD_code = NABNAI | q = 0 | S = 0 | Stoichiometry = C12H10Cl2N4OZn | MND = 5
Zn        3.86426064885978    9.84636360205997    2.93156609866130
Cl        6.12474509548270    9.86637979385625    3.05518874070978
Cl        2.53070128681838   10.76978783163082    1.47917898002923
O         3.76299337846210   11.18116351065504    4.78235064845307
N         3.44952606488170    7.70827655316558    2.44334106757669
N         4.09008592382486    8.61517254395728    4.80324240705294
N         4.51535767251035    9.33167943455994    5.83583243850594
H         5.17767917601129    8.93812661745946    6.50414058324301
N         6.17373269255698   13.12206694040751    8.70553265619382
C         3.04064277911017    7.28462920513255    1.26330427851054
H         2.68832833505045    8.05209794244022    0.58779694179132
C         3.05881260254976    5.94177787255381    0.90683991101486
H         2.71689522370603    5.63455555517304   -0.06817644972148
C         3.53298515033009    5.01737836997020    1.82454478019817
H         3.57179955486163    3.96661362823873    1.57920438231815
C         3.95849413900094    5.46218990996301    3.06535914893883
H         4.33182990087647    4.77373947215668    3.80768139851234
C         3.89393348560408    6.82581332442981    3.34505024484946
C         4.33746848930602    7.38547802827768    4.60842652189394
H         4.90320759062066    6.76263752895582    5.30164294056622
C         4.36947492060958   10.69620616235386    5.71642274719403
C         4.99366728370198   11.50771088093508    6.78505052862168
C         5.13881986550568   11.06088622292986    8.09743964450242
H         4.77329210448993   10.09534252248631    8.41281603941573
C         5.73298604056445   11.91602724473199    9.01379125287205
H         5.86383922073981   11.61995483139390   10.04613219931942
C         6.03118075421648   13.54671901731411    7.46281930811334
H         6.40232218679980   14.54234478371469    7.26235139586931
C         5.44272048115895   12.78677856477891    6.46286218952218
H         5.33651795178835   13.15260210431827    5.45446697527129

