31
CSD_code = NABPAH | q = 0 | S = 0 | Stoichiometry = C8H12CoN3O7 | MND = 6
Co        0.34967636767008    2.67112598495344    0.28183942811758
O        -0.97255407026299    3.96391926140463    0.32806677407073
O        -1.63291830418911    5.88247140139407   -0.57112516148349
C        -0.83561869474234    4.98680908324682   -0.42824619777070
C         0.49714140378680    4.96729550326944   -1.23477665097600
N         0.85763937024396    3.54116325347842   -1.43795273952820
C         1.58099851326162    5.67950768075138   -0.43617489002015
C         2.16432862657829    4.87385152624521    0.75357250943304
O         3.11454253567414    5.34133313573262    1.34422030534465
O         1.68517994110354    3.71696919819878    1.03357645565564
O        -0.16554648888014    1.98195787322867    1.94373605650732
O        -1.03176637917510    0.18747025669521    2.94135570625444
C        -0.73602831360495    0.85392979048010    1.97779965517199
C        -1.01208172315353    0.26281887243784    0.53235102046303
N        -1.06840404469340    1.40674547905515   -0.38214505374437
C         0.16071584585626   -0.66459699956400    0.20853559964732
C         1.49591484009349    0.00331983604623    0.39955423032094
O         2.54304375803520   -0.76110659945332    0.70156267271036
N         1.66386910877757    1.25041718648815    0.21333699629335
H         0.34265352722053    5.47885373752772   -2.19295781681006
H         1.85660593731469    3.48506315099980   -1.64411941156923
H         0.36144374792366    3.19049080250653   -2.25723694518384
H         1.18323745234349    6.61236954967104   -0.03292348923945
H         2.43102885673632    5.93899543816408   -1.07421776667398
H        -1.94380881737109   -0.31538207902487    0.53486364871005
H        -1.92247479189801    1.93318141854936   -0.17989791322403
H        -1.12951287316805    1.08918040052049   -1.34999867355509
H         0.10153167574503   -1.02425041253831   -0.82672768673956
H         0.09006500451683   -1.53016399751271    0.87248362825264
H         2.30934261419465   -1.67743216551716    0.90343606244681
H         2.61245537406318    1.55919243256514    0.42780964711829

