76
CSD_code = NABSIS | q = 0 | S = 0 | Stoichiometry = C39H31MnO3P2 | MND = 6
Mn       -1.67854208167785    1.58784227557738    3.61454065185757
P         0.56039256838871    1.62500651906353    3.47150877540960
O        -1.67548268239519    4.50149650524551    3.61566228347673
O        -1.50898841259305    1.12504750368446    6.50001448336380
C        -1.67745916418781    3.34722270076584    3.61507891059872
C        -1.55951733589242    1.34842366642965    5.37174312551599
C         1.42427618165744    0.12270436139837    4.02791758559963
C         2.30480576341960    0.10333856506452    5.10269870708766
C         1.10884811239782   -1.06655634297756    3.37102201666229
C         2.88159930842901   -1.09237326981047    5.49663427462557
C         1.69444684738963   -2.25367082351894    3.76363870127360
C         2.58427192572413   -2.26702353950489    4.82742695595002
C         1.49474982652315    2.92410024313309    4.35155804998266
C         2.78926898484682    3.24179923412495    3.94356094193186
C         0.94517746003492    3.57651635318381    5.44898046103792
C         3.51160351515232    4.20612432243560    4.61983239668252
C         1.67317927732053    4.54073924652998    6.12385580807430
C         2.95458288206932    4.85935453887438    5.70835274429655
C         1.22162693510396    1.88180615299057    1.78857074203731
C         2.08960395658563    1.01714897282148    1.13337468819910
C         0.79962786561837    3.04639855230548    1.14841265683935
C         2.51618864559635    1.31274944599648   -0.15067480360266
C         1.23164844396926    3.33804411296527   -0.12974350773490
C         2.08835769950258    2.46639684578515   -0.78422617117625
H        -1.67839833451911    0.09818417550118    3.61408837043315
H         2.53715132913947    1.01643454342947    5.63276450957505
H         0.39427312802287   -1.04488290199005    2.55617840958290
H         3.56471904060045   -1.10511180164476    6.33358965609739
H         1.45350642898981   -3.17140963292073    3.24683586396439
H         3.03823547662512   -3.19618072632198    5.13942040150237
H         3.22599313141732    2.72924630445693    3.09729257156868
H        -0.05562536138135    3.32869206455333    5.77855958001954
H         4.51334103801815    4.45005978876854    4.29699568924278
H         1.23747809782285    5.04432306461202    6.97444320389029
H         3.52072313584750    5.61535354502026    6.23229226563272
H         2.43595039788122    0.11745813890224    1.62196397396423
H         0.13043943924631    3.72355834598053    1.66665672454501
H         3.18771669707557    0.63488660657559   -0.65763679245301
H         0.89910097698903    4.24190643637157   -0.61920881210547
H         2.42168956492730    2.68799622132791   -1.78734347186076
P        -3.91758755336736    1.62491243327435    3.75793853221759
C        -4.78118478771242    0.12231427236629    3.20185660592217
C        -5.66092179709277    0.10225781251739    2.12642990205379
C        -6.23677660058858   -1.09385411302767    1.73229919511070
C        -5.93936890363178   -2.26820475762598    2.40200492806329
C        -5.05051954234977   -2.25412380382555    3.46660501661495
C        -4.46578242404510   -1.06662616462535    3.85936137655612
H        -3.75184530155772   -1.04440856310285    4.67474749944799
H        -4.80959558890342   -3.17161076242294    3.98386972493669
H        -6.39246328883579   -3.19770400308698    2.08975570854761
H        -6.91916800230938   -1.10719113998596    0.89475642470592
H        -5.89333303668610    1.01514286180246    1.59601197149200
C        -4.85183647910516    2.92393538604255    2.87766596009212
C        -6.14643990974888    3.24197551832372    3.28509078131175
C        -6.86792159758734    4.20698885292497    2.60885458818325
C        -6.31002107633595    4.86048461303182    1.52093960950419
C        -5.02854332797616    4.54148339193343    1.10597266012569
C        -4.30138445497002    3.57666992764212    1.78087427036364
H        -3.30044529553416    3.32859849252722    1.45189522624818
H        -4.59214247503713    5.04518042843108    0.25580462030349
H        -6.87547397476792    5.61706574270060    0.99709718250368
H        -7.86969149875044    4.45135526083844    2.93126254325867
H        -6.58382249937615    2.72935720530721    4.13098968790351
C        -4.57851286761973    1.88199107626587    5.44096439703045
C        -5.44634426270209    1.01754767038648    6.09663769123230
C        -5.87176983904130    1.31301085501204    7.38110247399053
C        -5.44298663594935    2.46633242981140    8.01458814736704
C        -4.58649506304276    3.33783012496310    7.35960284936829
C        -4.15563495973156    3.04630461573826    6.08103799194238
H        -3.48655503246238    3.72328153110203    5.56239813738083
H        -4.25327216655867    4.24149189885587    7.84895601950534
H        -5.77528770067344    2.68773504184126    9.01809061008847
H        -6.54320355364788    0.63532223251230    7.88844580510874
H        -5.79345969639048    0.11809651539280    5.60814036389152
C        -1.79701847959986    1.34908949878148    1.85716378762469
O        -1.84655103621480    1.12551730223871    0.72885508861393

