37
CSD_code = NABVIY | q = 0 | S = 0 | Stoichiometry = C14H20N2Zn | MND = 4
Zn        1.68400781148649    9.77927053150564    9.26942476908527
N         1.55800159281436    7.71380096714681    8.16333699187316
N         0.65222501503174    8.81591477708397   11.13055116624619
C         1.38781505614110    7.69549729471305    6.84843074038044
H         1.03558487836453    8.61873935650103    6.40967674051336
C         1.63303599812238    6.57604540405582    6.06960450254135
H         1.48014505267809    6.60983622791552    5.00218795800836
C         2.07724770430350    5.42007215890351    6.69197644172221
H         2.28073740442418    4.52720729791447    6.11911165526874
C         2.25419567290558    5.43620824898696    8.06713528401664
H         2.59796096949498    4.55955722193698    8.59381397842142
C         1.98303992278904    6.60671363023360    8.75611665939938
H         2.10765721770469    6.67058444141349    9.82758681001833
C         0.90088155573543    9.40759946394615   12.29141625050512
H         1.85291391504446    9.91436178521926   12.36332455527324
C         0.01641390724766    9.38651484411222   13.35762216286259
H         0.26374637922804    9.88554185864091   14.28163059934789
C        -1.18783736611684    8.71772845451658   13.20670949307578
H        -1.90663981412100    8.68389928038881   14.01231664010661
C        -1.44936423812008    8.09414275807611   11.99616878255462
H        -2.37368707795318    7.56206607739315   11.83274041353227
C        -0.49950436264982    8.17355942202726   10.99170377579179
H        -0.66130744793026    7.70693837406069   10.03019292197629
C        -0.01210950347035   10.78145390349508    8.58596906112374
H         0.19499274024813   11.39822063302361    7.70639596070968
H        -0.75661226417383   10.04856122581688    8.25926662586286
C        -0.68029818053421   11.68354672525954    9.62613241182953
H        -0.98027243003266   11.11869692807111   10.50944287016359
H        -1.57995935365540   12.15820313571088    9.22097036489928
H        -0.00630604870606   12.47571290448609    9.94887280508989
C         3.69111198512592    9.72696724501890    9.81567814744376
H         3.82941975426842    8.96209072003049   10.58635666570532
H         4.31330136470458    9.40136840224357    8.97630092395800
C         4.28512476694229   11.03475379082576   10.34601152276709
H         4.24685233208129   11.81603969852001    9.58887556059312
H         5.33283219149491   10.90546296771632   10.63703191739666
H         3.74285289908680   11.39322184308674   11.22071586993495

