46
CSD_code = NABWAR | q = 0 | S = 0 | Stoichiometry = C17H20ClF4N3Pt | MND = 4
C         8.15342748570883    0.21406057267933    8.42019084559127
H         8.73042613116103    0.61562780814275    7.59471393324961
C         8.42223087525322   -1.04614215323405    8.91834852689033
H         9.21319882139311   -1.63662234745723    8.48445140280665
C         7.65813446112404   -1.53171872401977    9.96938730980153
H         7.83745259837609   -2.51568577426930   10.37371301567352
C         6.65858594281046   -0.72136765967073   10.48372110675861
C         6.45209132318003    0.52911979440645    9.93121657728885
H         5.67611161446619    1.18483162968900   10.30485090327901
C         4.15425475542084    4.26919508649164    7.79707023911888
H         3.84463933209596    3.97911568460689    6.79621415779728
H         3.30745570009281    4.73552438428108    8.29412015760974
H         4.42726447101353    3.36597822161007    8.35260692257569
C         5.32976387361231    5.23976690461583    7.78900498002812
H         5.08681180749723    6.13925501300161    7.20689757145783
H         5.52436750551724    5.53993890569838    8.82180530133876
C         7.70797325947098    5.50234253773664    7.62145416769189
H         7.66996359773748    5.66760922725664    8.70073410036316
H         7.59540800275756    6.47199561903112    7.11641573815094
C         9.06226122099116    4.89032727578659    7.28912548696938
H         9.24785894891804    4.85543459619070    6.21891403391526
H         9.11652765547105    3.87961649835856    7.70417935217096
H         9.84533144996350    5.48636529342749    7.75093223049427
C         6.48678345876782    4.46049582826624    5.79480448305060
H         6.98809520164960    5.29141729122684    5.28763957262361
H         5.43481583443125    4.47320226709833    5.50584981896526
C         7.06935376337834    3.11603264659721    5.33642402368553
H         6.75067402526876    2.93887805115999    4.30330190291854
H         8.16718858005874    3.13162714706164    5.34833930482746
C         6.30914528615579    0.85718229275930    5.82785780022055
C         6.84769887385039    0.20836060610612    4.68653322629725
C         6.55160630743390   -1.10545669413055    4.38258592502868
C         5.72440678230543   -1.88036201358687    5.17803019780580
H         5.51615749967727   -2.90624147216482    4.93525013412676
C         5.17046122001762   -1.27251152247374    6.29443018442565
C         5.42949849025668    0.04447252453564    6.59027774844118
N         6.53996291779270    2.10867399429307    6.22814259729107
N         6.57053212280394    4.62983660789435    7.26650441211645
N         7.18147779976891    0.98759362385802    8.91193208811590
F         4.81693230868292    0.63005237771810    7.65656264816812
F         7.72483455944130    0.86762210300402    3.88302842934626
F         7.11133979059889   -1.66581689675185    3.29378383074031
F         4.35145135325389   -1.98574228828662    7.09237825437038
Cl        7.15626288752546    3.63286674931627   10.26046753777847
Pt        6.83236269916890    2.75346993545090    8.14387570576899
H         6.03851740367997   -1.05342155331169   11.30053211286390

