139
CSD_code = NABXEW | q = 0 | S = 0 | Stoichiometry = C60H64FeN8O6 | MND = 6
Fe       12.85550705214996    5.34593758494001   -0.00000526703468
O        17.51904858997002    5.85961413054396    7.74459843596686
O        11.66995661300381   14.32827008571881    0.14446795796643
O        10.63356767331750    0.42076850102096    3.78461611359283
C        18.88767276694698    5.55810134522636    7.85017546984291
H        19.09554943943449    4.52190327292797    7.56287070828019
H        19.14041701939220    5.69658563966633    8.90033463837514
H        19.49774448085937    6.23306086510880    7.24053623236463
N        10.30402710000006    3.16893778945068    3.14272479143645
C        17.56764040559646    5.39522462555981    5.34490225303169
H        18.61987115381476    5.15648965768830    5.33742171587448
C        16.92420726512062    5.76475875436832    6.51984078721710
N        13.43580086315399    6.83209974823662    1.20587303663903
N        13.88619166105383    4.03889628664395    1.11178613997530
N        11.13890296898857    4.93081007748792    1.17891015908374
H        10.30751599845054    5.19413103460944    0.65316959258833
H        11.13164609598621    3.90981205517745    1.24666978058177
C         9.52843590718260    0.87224015675362    3.04292196961167
H         8.70421259614728    0.19417552602594    3.27081735605959
H         9.75509259774923    0.82583802496662    1.96662723607632
C        10.40774837054645   14.92484316121742    0.30507679014826
H         9.72260964696333   14.64249155174983   -0.50133993408930
H        10.58176534360988   15.99919180304567    0.26786380767707
H         9.95872493220651   14.66573263572121    1.26992032727705
C        13.02815372982330   12.43156396067639   -0.02660192242133
H        13.85553208863305   13.11197615740200   -0.15234659510328
C        13.72031376748835    8.90337618942123    2.16104327999721
H        13.62028304042096    9.96152261098055    2.30532862686412
C        10.67340942975471   12.10221822237648    0.30394632368203
H         9.67230581711883   12.47968798823025    0.44400281659328
C        16.85591914512402    5.33010055123378    4.15883599162088
H        17.36663849928055    5.04451727935370    3.25047680977607
C        14.38996708181960    8.01566640560191    2.93037138268477
H        14.96472025734170    8.20598511898310    3.81587270090220
C        11.74654185399527    1.25498239191889    3.55800923740078
H        12.04408477534231    1.20393518666061    2.50113199301571
H        12.55536564431026    0.86647344797034    4.17771389983030
C        11.75051290070123   12.96599511303125    0.14513154448397
C         9.16216012654325    2.31094019285942    3.41058838776117
H         8.31702034460108    2.63752555602404    2.79987779364168
H         8.86658534497093    2.34686243591812    4.47368049950716
C        13.13436888208398    8.15436256356225    1.08491996491705
C        12.14532454418075   10.19232653506485    0.11535232797281
C        15.50196238909008    5.63233814996800    4.11069536875910
C        10.87755103707354   10.73310568808462    0.28449963306520
H        10.03391443910629   10.07023205881655    0.41249750081721
C        13.21940204913756   11.06775770255724   -0.03667465830523
H        14.21473827822808   10.66905075329617   -0.16952158526740
C        15.56274417249723    6.06906762811524    6.48034278778532
H        15.07514182942601    6.35264033852726    7.39986190576806
C        14.19913019694214    6.72621146875262    2.32898412458558
C        11.44385130201191    2.70784370925769    3.92271928869803
H        11.23591433539229    2.77701918993813    5.00508437679449
H        12.31774473905471    3.31651058424380    3.69119601677844
C        14.86628453678298    6.00506772797001    5.29383689870379
H        13.81174266841155    6.24001668364119    5.27641572962613
C        12.34861180713435    8.72874779058040    0.09053576601476
C        14.58014707399444    4.30322230154383    2.25396497218425
C        15.09362271165934    3.08873630405577    2.82143418558947
H        15.65330870716963    3.02041833688055    3.73396986409456
C        11.02972324659079    5.42197123663905    2.54914667782550
H        10.73581952114252    6.47245304154034    2.54494187286885
H        12.01429411570473    5.35084164094043    3.01182577745760
C        14.71249791795277    2.08599744884385    1.99761221023525
H        14.89818387441342    1.03520798271339    2.10529734727485
C        13.96214769032894    2.69127783514760    0.93359205314031
C        14.74242114975127    5.55336452233866    2.84480013345415
C        10.01532933371418    4.58078468742229    3.33615913606358
H        10.02472125357214    4.86994679733778    4.39969647249927
H         9.01125009203939    4.76983601907833    2.94417692377277
O         8.19176046781257    4.83222335135382   -7.74448269717157
O        14.04119671940872   -3.63637702927655   -0.14456106817689
C         6.82312736429850    5.13371133545857   -7.85001499394548
H         6.61524144722034    6.16990613346907   -7.56270515870913
H         6.57035071992892    4.99522056444969   -8.90016555208089
H         6.21308805821272    4.45874199270908   -7.24035414808377
C         8.14323898832452    5.29661402139363   -5.34478559645941
H         7.09100586518073    5.53533740169309   -5.33727217259734
C         8.78663969135626    4.92708762255422   -6.51974426180823
N        12.27518178357186    3.85976853436028   -1.20586066227220
N        11.82478848238871    6.65297357939265   -1.11177024693954
C        15.30341702683984   -4.23292052267506   -0.30518444149139
H        15.98855325003828   -3.95056602835043    0.50123336499202
H        15.12942334664434   -5.30727347094059   -0.26798664352417
H        15.75243042696661   -3.97378586300570   -1.27002614575260
C        12.68295868405431   -1.73970328064322    0.02653896476657
H        11.85559602309806   -2.42013532814789    0.15227904372737
C        11.99070401850114    1.78849830036594   -2.16105407865421
H        12.09075771226748    0.73035622578153   -2.30535480216680
C        15.03769440382534   -1.41030104607175   -0.30401440866768
H        16.03880596674986   -1.78774681865839   -0.44407875307324
C         8.85499653381369    5.36174589425000   -4.15874160735308
H         8.34430271623494    5.64732427854675   -3.25036654526306
C        11.32101952788152    2.67620264117982   -2.93036143851048
H        10.74626044291405    2.48588232665267   -3.81585842905487
C        13.96061055464621   -2.27410382904826   -0.14520709559099
C        12.57664343870091    2.53751068760543   -1.08492716630449
C        13.56573711662523    0.49955521024346   -0.11539031857645
C        10.20895784518962    5.05952276726970   -4.11064292852146
C        14.83352237079806   -0.04119315859159   -0.28454885583059
H        15.67714378617410    0.62170109875579   -0.41254024256823
C        12.49167998743642   -0.37590154361570    0.03663040954702
H        11.49633576887971    0.02278149969304    0.16948856438299
C        10.14810812299545    4.62279678710444   -6.48028930559218
H        10.63568516007539    4.33923074744825   -7.39982390391576
C        11.51183918093303    3.96565484038772   -2.32896310678871
C        10.84460407753732    4.68680363769385   -5.29380475238964
H        11.89914949225397    4.45186827777488   -5.27641670507669
C        13.36241720885114    1.96312929381209   -0.09055409165440
C        11.13081669609630    6.38864331627583   -2.25393802467105
C        10.61734793447189    7.60312901269814   -2.82141400369802
H        10.05764981713262    7.67144244172328   -3.73394252033039
C        10.99850276645351    8.60587352147347   -1.99761293504223
H        10.81283409678574    9.65666455361533   -2.10531211662530
C        11.74885794498781    8.00059610584933   -0.93359462155854
C        10.96853189839183    5.13849942393928   -2.84476695502863
O        15.07742382676229   10.27108798160318   -3.78467039693501
N        15.40695806962254    7.52292559965578   -3.14274075719298
N        14.57210372420666    5.76106592502795   -1.17891691653097
H        15.40349152185196    5.49774189818065   -0.65317950596065
H        14.57935848953051    6.78206365651942   -1.24667619010151
C        16.18256052053518    9.81962261531436   -3.04297981243552
H        17.00678509255971   10.49767952904380   -3.27089379821835
H        15.95591438957104    9.86604277171933   -1.96668373725371
C        13.96444758842576    9.43688355776449   -3.55803947986787
H        13.66691592806636    9.48794870829439   -2.50116005681219
H        13.15561952580041    9.82538703448522   -4.17774231492809
C        16.54882537260372    8.38091535962406   -3.41062812621970
H        17.39396918103525    8.05433522599646   -2.79992050492724
H        16.84439023709248    8.34497475117999   -4.47372248223361
C        14.26712785458355    7.98401508443960   -3.92272949050232
H        14.47505236763596    7.91482128349101   -5.00509590735091
H        13.39323366093794    7.37535669945692   -3.69118729495333
C        14.68126109319010    5.26989512734001   -2.54915082113372
H        14.97515935967984    4.21941164706424   -2.54494478876658
H        13.69668608323355    5.34102968385040   -3.01182083584406
C        15.69565232299048    6.11107677878827   -3.33616817460351
H        15.68625211014442    5.82190563822949   -4.39970296679643
H        16.69973246348161    5.92202408562376   -2.94418842824718

