102
CSD_code = NABXIA | q = 0 | S = 0 | Stoichiometry = C54H36N10RuS | MND = 6
Ru        7.98254820142268    2.80615926419252    5.74387601671988
S         4.98552687826457    7.46396835143536    2.15179028646756
N         7.10127964922047    4.21041896843490    4.65157549988398
N         7.01303568479358    5.94537512877003    6.30366628601998
N         8.05617463423528    4.02654032944811    7.29669573530843
N         9.13120815103418    2.60067881488581    8.89987350909897
N         8.86780922553234    1.40818254966903    6.83134242070902
N         8.95218723045786   -0.35787422102496    5.20045362421690
N         7.90514522377524    1.56435203031953    4.20877906597015
N         6.83418659874587    2.98969014992497    2.60848561898141
N         6.14551794977813    2.13500496317856    6.36852142267722
N         9.81989729142494    3.47478286767099    5.12638429717277
C         6.71703632935845    4.06636920800655    3.35367255415175
C         6.11916221247045    5.30806053567240    2.90300942633878
C         6.16915203559974    6.20268069137781    4.02342100301465
C         6.79911580944682    5.45976923818010    5.09731653774415
C         7.57480606343437    5.29184816537588    7.30402468838411
C         7.77760836911221    5.87265304074323    8.61814831641004
C         8.41907299694052    4.88107285766624    9.38649423190798
C         8.57484927829822    3.72943132838383    8.51850230568676
C         9.26335172446228    1.54447331725254    8.12481414751114
C         9.87672896022352    0.30583977002390    8.56405315537098
C         9.82397543310230   -0.57285529829113    7.46471012050563
C         9.17968646476937    0.16025909904295    6.39264780144143
C         8.36575074780206    0.28436324829719    4.21087162564043
C         8.10726340452593   -0.31171647943035    2.91434021472605
C         7.46515136538186    0.67994093869369    2.14667840676753
C         7.36486256643762    1.84912919066238    3.00038180845713
C         5.50990411072713    5.83505397520968    1.78730578667605
C         5.59642631237274    7.43273328603231    3.79067125228281
C         7.46317004352286    7.10511067383440    9.16609358822140
C         7.81036164007408    7.33184585531687   10.48668397543110
C         8.45235458372590    6.35485501313289   11.24404097689885
C         8.76247154303892    5.11734077076224   10.70698192187581
C        10.43926318719977   -0.09362385171326    9.76502828670603
C        10.94469985580962   -1.37953176942625    9.84543391319741
C        10.89239713337827   -2.24817627429398    8.75720530817601
C        10.33236281536093   -1.85812544993605    7.55335318150215
C         8.36365672793100   -1.56679926503176    2.38866485234975
C         7.96563831466087   -1.81443463328906    1.08632003638668
C         7.32307675825929   -0.83736717405812    0.32947569964923
C         7.06297357845515    0.41990649535265    0.84708720002249
C         5.27407118897006    5.31634792886169    0.45917996341019
C         5.93492836954874    4.17467954896112   -0.00216898925885
C         5.71796575941096    3.71725285826676   -1.28731886355982
C         4.84343974026201    4.37735695062900   -2.13527301317999
C         4.18121434558247    5.50895015922258   -1.68667039728852
C         4.39534583761184    5.97590569394416   -0.40619887365774
C         5.44717102809551    8.61819583153268    4.60407609643679
C         4.58793347564918    9.64415468545757    4.19718479460750
C         4.45281278135965   10.79301240570713    4.94897580577771
C         5.17619708801253   10.94816602531711    6.12073966237243
C         6.03234845885646    9.93978584058150    6.53237987952172
C         6.17022361354014    8.78416625057436    5.78837385608647
C         5.18174354287226    2.98048755429175    6.75449547226932
C         3.93597432676482    2.56830259582999    7.18226405606704
C         3.62743158208718    1.21219582728449    7.22919459431676
C         4.63280523396022    0.33749424309687    6.82832248313021
C         5.85380452401597    0.82905350534363    6.41301823965353
C         2.30100078797229    0.72263692860064    7.70482627348431
C        10.77795794442293    2.62705795820084    4.73110890463724
C        12.03593744813792    3.03419360242089    4.33505528048553
C        12.36359332536639    4.38653868421882    4.33135898090971
C        11.36296797327993    5.26400415191184    4.73876126409169
C        10.12946158264816    4.77763671079418    5.12125907180816
C        13.70445989147327    4.87156541623515    3.89293748931759
H         6.95754083638600    7.85470483496782    8.57829556360937
H         7.57925518459502    8.28393273432562   10.94254162781983
H         8.70872525168698    6.56997714357465   12.27146863113821
H         9.25433304510823    4.35319682498643   11.28800714510657
H        10.47590976162991    0.58436552141075   10.60320378829730
H        11.38953455656538   -1.72091347586130   10.76917509845449
H        11.29755289531283   -3.24470275716119    8.85937220994944
H        10.28704964137151   -2.52407912230474    6.70573168788263
H         8.85699180098369   -2.31886958608340    2.98442871136406
H         8.15208791003721   -2.78352399885065    0.64627061386523
H         7.02150278282929   -1.06984525859791   -0.68185455483277
H         6.55736013318225    1.17623933510987    0.26807291236971
H         6.60405685428653    3.65485331506018    0.66426116009735
H         6.24149457241844    2.83858606748664   -1.63705336881552
H         4.67810179614071    4.01373888350426   -3.13885566023495
H         3.49520112993431    6.02943018961334   -2.33913174465093
H         3.87479759450652    6.85914943488654   -0.06355937417377
H         4.02020860723961    9.53063030589705    3.28451133142530
H         3.78086889279870   11.57245493330626    4.62018139727913
H         5.07243330981989   11.84884123257562    6.70780047130098
H         6.60293188844244   10.06120104072743    7.44244149322503
H         6.82448595512431    7.99212732856292    6.11469777017480
H         5.40520710520592    4.03879269442464    6.72386553350960
H         3.20736920163518    3.30790811606864    7.47685562910137
H         4.46807466750057   -0.72897805736517    6.83663417334375
H         6.62487985737409    0.13585893839755    6.10359050009470
H         2.04373041178927   -0.22151247357737    7.23125128957181
H         1.52212852265900    1.45291287916333    7.50001598422147
H         2.33617788857581    0.56059498541554    8.78262958374342
H        10.53874687303187    1.57180943311798    4.72863368897096
H        12.75945942905467    2.29321522193728    4.03171383170573
H        11.54221997825081    6.32797806546784    4.76180056564567
H         9.36251567687697    5.47200594243609    5.43870225001938
H        14.46571057199576    4.11474014498565    4.06441458007050
H        13.97746173749441    5.78316573541100    4.41878993166976
H        13.68255674369230    5.09288638923458    2.82533740958000

