60
CSD_code = NABYOH | q = 0 | S = 0 | Stoichiometry = C24H32ClNORu | MND = 9
Ru        2.26798689202936    5.14466549544898    6.64938001882195
Cl        4.48961756424775    4.37411886908232    6.60179346566743
O         1.95854422600920    3.37638311344404    7.69717785898689
C         2.57241378593638    6.04616276170236    4.56762288356511
C         0.09069808668634    5.39625284659913    5.83928178230497
N         2.77959779018963    6.00630942998764    8.43621179276883
C         2.00175958270000    4.74714112328357    4.43335504742667
H         2.49462643711077    4.01702694585137    3.80058554264809
C         0.80606269440045    4.42529326348043    5.07636172586391
H         0.37583586470433    3.44099836714283    4.93273260438901
C         0.64573760043883    6.67684458917685    5.94692218498249
H         0.09691481671800    7.45836999068330    6.46148214335325
C         1.87606439571304    7.00643463951752    5.32011793592681
H         2.24003646323179    8.02669697318206    5.36990592695176
C        -1.28007962590801    5.09922595174783    6.39872025294991
H        -1.53782894446673    5.90122335839315    7.10062997293723
C        -2.30549863388660    5.11334429215710    5.25921408177397
H        -2.07571856224627    4.34109770787477    4.52803105578477
H        -2.30398368919296    6.07701955364899    4.75343933548636
H        -3.30263079739183    4.92952711268398    5.65229766395594
C        -1.32241637705778    3.76861632004195    7.15204759597039
H        -0.47118669364946    3.68826033393976    7.82641005422980
H        -1.29021055965694    2.92790651138429    6.46350731226555
H        -2.23900467277894    3.69565581444033    7.73298966448477
C         3.85303254997400    6.37293487800610    3.86318573870881
H         4.09535043809347    7.42850653859891    3.96142982243161
H         3.78371917483788    6.11598801175297    2.80663829086097
H         4.66274307794368    5.78625479581715    4.30275131707076
C         2.53634501528981    3.09050819055538    8.78965900586772
C         3.17080604278315    3.97773400892508    9.64532006216464
H         3.61736487894090    3.57159484123766   10.53916119010833
C         3.19453594275965    5.37638542749934    9.50359457998237
C         2.56902143300503    7.39851702335770    8.42697438764019
C         3.53407685225605    8.27788594229024    7.91599592694858
C         3.23911706931332    9.63135613634181    7.86319761567830
H         3.97919626741237   10.31280165082598    7.46675002111341
C         2.02648827830008   10.13703226651384    8.31365310852746
C         1.74527311355128   11.60737906150730    8.23205264580349
H         1.71673208014978   11.93136500265460    7.19181087166273
H         2.52949268681343   12.17274887103410    8.73327500170865
H         0.79184789741502   11.84846460780316    8.69519896983390
C         1.09458392617402    9.25427674313978    8.83882986995023
H         0.15021125232646    9.63148686143525    9.20676269624599
C         1.34866923743921    7.89316279205048    8.90850039081426
C         0.34184206705754    6.95004975289346    9.49822062047872
H        -0.65676854853341    7.38009463246606    9.46826035606565
H         0.58984573592167    6.73946739060592   10.53884832415704
H         0.34500251996981    6.00030822905004    8.96018585230472
C         4.86543422734439    7.76435547164533    7.46901119027302
H         5.51775254137474    7.62709057251747    8.33150482771480
H         5.34368852817869    8.46483242479062    6.78895846354968
H         4.76732258384942    6.79242184519467    6.98462568440963
C         3.70524982650396    6.14926195487395   10.69301236636530
H         3.15872163706990    5.86490432331676   11.58991450176842
H         3.61374873041361    7.22136164902498   10.54168212028355
H         4.75363293621743    5.90033450816257   10.84625609103054
C         2.46469595750892    1.63511383407304    9.20239577505768
H         3.43988066643595    1.17985327733736    9.04110720498289
H         1.73192034749832    1.11810324144680    8.58843981954351
H         2.20468538453847    1.53928787635835   10.25281738540072

