42
CSD_code = NABYIA | q = 1 | S = 0 | Stoichiometry = C20H14N4O3Re(1+) | MND = 6
Re        8.68800149396054   12.37735149182555    8.75852696211724
O         8.14785487306461   13.27270763840475    5.84231512460360
O        10.19935493590018    9.79497323587519    7.94805863132083
O        11.36834298449806   13.91994382601304    8.87584613297907
N         7.49193299033440   13.99378688114118    9.53945597616343
N         6.62631932423071   11.55661141486447    8.93584019612041
N         7.55229960079548   10.48549614249640    6.55188926753886
N         8.84279776648873   11.78468643746502   10.71031728715129
C         8.35564263296197   12.91896353047127    6.90163544986343
C         9.64654828650493   10.75903186329929    8.21080788630776
C        10.39399804907919   13.32823525432151    8.81664091443240
C         8.97128211316317   11.46097078041141   11.80518709169963
C         9.15811734903069   11.05637451401456   13.15764741608858
H         9.92352354060458   11.67989481919189   13.62131522072893
H         9.48455281858910   10.01604318773921   13.18444412115599
H         8.22751140256769   11.15524699023065   13.71680441950446
C         7.91318529937646   15.24945124954958    9.67395426335726
H         8.89503461300695   15.47390813163365    9.27857991872805
C         7.15851801070185   16.23974578971496   10.27688339215944
H         7.54653134777816   17.24183998591498   10.35415471774802
C         5.90460329382632   15.91140276081815   10.76856589317966
H         5.28342671967679   16.65259023566933   11.24605689838284
C         5.45619195261100   14.61094857317670   10.62367874728675
H         4.47622070776461   14.34316745002942   10.98099736297249
C         6.27013718912737   13.66632092184585   10.00061582124947
C         5.82646476239067   12.28632026625790    9.73351646094957
C         4.62505304877332   11.77751983461678   10.22097788005273
H         4.01015649397876   12.35362108834535   10.89118139703944
C         4.22376649852856   10.50925930676746    9.83779530256009
H         3.30211923491961   10.09153634032348   10.21155569100062
C         5.00449433755685    9.80850985038392    8.93863020736898
H         4.68644327688612    8.85131156391462    8.55996450523941
C         6.20695211343417   10.36485043727533    8.50074685802346
C         6.98501860484950    9.67956162380924    7.45136871935518
C         7.06803210296635    8.29257469440202    7.36510708140649
H         6.63700895898310    7.66199737194784    8.12704018239132
C         7.74854276938596    7.73899648397252    6.29193012706813
H         7.84140807764641    6.66734357915028    6.20153664553572
C         8.29850364014794    8.58005075526099    5.33772078146580
H         8.81817987488319    8.18569061406454    4.48005527313601
C         8.17604718265459    9.95089532576518    5.51909556982720
H         8.59567972637653   10.65366775763595    4.81295820472683

