58
CSD_code = NABZEY | q = 0 | S = 0 | Stoichiometry = C23H30ClNO2Ru | MND = 9
Ru        5.80345814696119    2.94954788570030    3.17655532355047
Cl        4.78756780418270    3.65662698506213    5.16804419160689
O         5.39753503130358    1.04402658964161    3.87757225245955
O         3.71382906612922    3.05161726537027   -0.31715949517052
N         3.92275355276668    3.03895723356419    2.42012964643553
C         4.25700492204105    0.49441296253495    3.88266490487474
C         3.08782186141283    0.98695166824136    3.31903970444444
H         2.20495998709531    0.37652643173665    3.42559689310912
C         2.94571578708620    2.18887212568089    2.60848535221712
C         3.73125079104775    4.24043955419694    1.72076700595860
C         3.64068132708912    4.26622817158273    0.31607144308268
C         3.58816277118669    3.01953715254498   -1.71616719133728
H         2.62861771020440    3.43160262683986   -2.04500728039053
H         3.64059197812929    1.96732973393735   -1.99374008457041
H         4.40109697264119    3.56351976761048   -2.21030865074321
C         3.51313540494644    5.48829620250626   -0.32710954249551
H         3.44761049004879    5.53902720368873   -1.40292402733895
C         3.47119810881789    6.66577687287225    0.40223457135182
H         3.37370787319872    7.60456794696025   -0.12359672303568
C         3.55440768894502    6.65695238312534    1.78740567667265
C         3.49565603643645    7.93271503303272    2.57168694067447
H         4.10131409466459    8.70520450777722    2.10097974575082
H         3.84670999159370    7.77270150643592    3.58735103127134
H         2.46950608970564    8.29717134154151    2.61882427070165
C         3.67955787288245    5.43487362336860    2.43176238592025
H         3.74943090517404    5.38054503260216    3.51057405751235
C         1.59154880999834    2.49841612073257    2.02768986073297
H         1.61658029830857    2.34818110145970    0.94941752974071
H         1.32969494227053    3.53711932486196    2.22203730966214
H         0.83268417751535    1.84966629695492    2.45348101428316
C         4.19302401357293   -0.86436880961814    4.55201019426396
H         5.19526294778441   -1.17768542099767    4.83362963202552
H         3.74988364111407   -1.60000675035646    3.88449151831973
H         3.57921996811820   -0.79310618779123    5.44784311386673
C         7.42313315912273    2.32348247484283    1.65396687038179
C         7.49101436742995    1.10638337656864    0.76179986906899
H         8.05192145804943    0.32747823040703    1.29164091088949
C         6.08027108707489    0.57724949100090    0.49012718248301
H         5.47599019954969    1.32687726068321   -0.01437833979960
H         5.59131516741624    0.32863991024795    1.43075459573540
H         6.12201929785146   -0.31679058533253   -0.12853984056005
C         8.22431045427753    1.41585351833628   -0.54619119106267
H         9.20578155911385    1.84110996149460   -0.34507473906862
H         7.66027001811430    2.12045976742127   -1.15264745431822
H         8.35604652124007    0.50271873233024   -1.12200640713030
C         6.86311225733369    3.53066383579650    1.20993154395320
H         6.49873116062973    3.61412120253879    0.19287633505755
C         6.84843048535458    4.68458787489026    2.03228876003302
H         6.47966548807715    5.62233067906109    1.63112634412319
C         7.34998976215049    4.63292797731848    3.34476673099614
C         7.31860285325772    5.83183703715730    4.24131787984375
H         7.02455578464753    6.72345073351275    3.69221150307001
H         8.29118189398102    5.99479272826490    4.70354221532319
H         6.58904528581640    5.65675800320982    5.03609146970877
C         7.94564451295711    3.42025784649337    3.79731024388895
H         8.41373212645024    3.38980116863744    4.77480463892081
C         7.96267946357031    2.29294180020741    2.97167947701727
H         8.44707457217465    1.38532349151439    3.31846882604063

