43
CSD_code = NACCOJ | q = 0 | S = 0 | Stoichiometry = C16H23ClSi2Zr | MND = 12
Zr        3.34688808606185    5.67722602993898    6.13523125936668
Si        4.57870365184041    4.24962660071151    3.56262047494480
Si        5.97882301392246    7.02180984256536    5.02054638176649
Cl        3.07085395406522    7.16697998944116    7.92480280707315
C         1.62928274946030    4.40505509791293    6.67872473845919
C         0.33753674050237    5.24001342885571    6.76367892347351
C         5.13942498444607    4.23879896903808    5.36655055060508
C         4.59915166382772    3.45415017685972    6.41427058180084
C         4.88244339429786    4.08785051427892    7.64348552088699
C         5.57881386862819    5.27693592271970    7.36729333707733
C         5.74732868722552    5.39298602640765    5.96585043080240
C         3.32007410403268    2.83704975090467    3.28889926378846
C         5.95449928053117    4.15728196943775    2.24314001911086
C         4.21503035793147    7.04016528513044    4.32296417437893
C         3.16225472488418    7.86097767352104    4.79368721351360
C         1.93690628859658    7.22820396176007    4.52058641829895
C         2.21572758609380    5.99435916747264    3.88932224427483
C         3.62085467957398    5.87191312071464    3.74028813683385
C         7.38421958382827    7.10241599412446    3.72948524195945
C         6.16084667691275    8.43890479665196    6.29203870360620
H         4.16408360791992    2.46754271897541    6.30275721315263
H         4.69226336554104    3.67830341481207    8.62812821266027
H         5.99121914440843    5.94841138124194    8.11100619748918
H         3.27458047808681    8.85205425026920    5.21745894867648
H         0.95650266560480    7.66788828352231    4.65838708348590
H         1.47746423817919    5.33044468557257    3.45324770812443
H        -0.48111252559697    4.67146824538105    7.22358944137687
H         0.49202696231518    6.13620013183497    7.37569344130073
H        -0.00404694830018    5.54398221573013    5.76952020667910
H         1.42572925474566    3.53581037436570    6.02301671113886
H         1.81764612793089    3.99652326687381    7.69354448737348
H         3.80673997417723    1.87027166310375    3.35479423067987
H         2.52207718177148    2.86364805384741    4.02745973464554
H         2.87053728005585    2.90480474674830    2.30441292989280
H         6.01584791419306    3.15218149825355    1.84068591059462
H         5.75517890499376    4.82994650736312    1.41618536863132
H         6.92459617472732    4.40701160128747    2.65526661250180
H         7.75446665568827    8.11847239054375    3.65068332609376
H         8.21788858105905    6.47090439484797    4.01546372262629
H         7.04993549792996    6.79668942380061    2.74590236720883
H         6.13231302754257    9.40668619055028    5.80153083526907
H         5.36356365758282    8.41392856405423    7.03293578400198
H         7.10893470278115    8.37202167857230    6.81606310437518

