73
CSD_code = NACDUT | q = 0 | S = 0 | Stoichiometry = C33H33ClCuN5 | MND = 4
Cu        6.24343694503740   -1.06829987038617    6.24060267393728
Cl        5.72342458800470   -2.46220323878852    4.63012266786351
N         5.60421677083265    0.88379175521782    5.40868644086261
N         6.19953612845899    0.06169856093349    7.85730649002893
N         7.18539855690369   -2.39691969260572    7.74432884578355
N         7.52320094000790   -4.24419728163660    6.42101757492828
H         7.07573658290862   -3.71618080802890    5.66865049178076
N         5.37302893466598    0.27107240367336    3.20649464609907
H         5.63193807977274   -0.67340600294181    3.49924408818254
C         5.12399012640688    1.15643086316680    4.18494757678721
C         4.38628363912222    2.33756113619680    3.94267638627707
H         3.99700968265836    2.51741244021901    2.95350293799237
C         4.15201179832997    3.20553561800416    4.97868925602864
H         3.57108297588324    4.10225333916328    4.81902659268550
C         4.66043115101524    2.91923148477615    6.24303161408805
H         4.46745167424610    3.57474511270805    7.07570281781952
C         5.38662187869362    1.75050569110572    6.41116691278136
C         5.99736835678842    1.37350543749254    7.68816872928813
C         6.39788000683759    2.29893053578416    8.64577094120247
H         6.23358067563116    3.35282895019536    8.48993962536943
C         7.03734794544780    1.84512766549747    9.78874660794692
H         7.36090237175968    2.54265677261822   10.54669316267518
C         7.28400913299469    0.48892698925753    9.93283447135575
H         7.81933267853713    0.11599268388076   10.79092347320405
C         6.85362385282112   -0.38149949120621    8.93717306960145
C         7.12136476341819   -1.82154227678226    8.95606723678338
C         7.31026620171437   -2.53255837868368   10.13099715460861
H         7.21163934148677   -2.05174280605043   11.08981840183727
C         7.59101807578287   -3.89350854311565   10.04234499717304
H         7.73196993170849   -4.47685947196287   10.94063027545406
C         7.67682418299531   -4.48776382367225    8.80904638300791
H         7.87671584958102   -5.54162286968663    8.70061642946048
C         7.45949330477155   -3.70799555704983    7.65021538815240
C         7.92495874806921   -5.56373658855037    6.13077137092235
C         7.00319015664860   -6.44731720309371    5.55832510568132
C         7.41392204907708   -7.73272308484571    5.25030019539295
H         6.70597774245860   -8.42168888235737    4.81147661593320
C         8.71283561759184   -8.16036127552287    5.49634888685816
C         9.61233176473625   -7.26336185864607    6.04884997539705
H        10.63153870196851   -7.57502816449639    6.23051650142218
C         9.24286898026051   -5.96226444032499    6.36266416015896
C         5.59820045497846   -5.99927030216107    5.30629601847200
H         5.00340835686782   -6.80955975993801    4.89338598517947
H         5.57886241797938   -5.16085039893644    4.61096539215094
H         5.13514103854819   -5.66055992392801    6.23304023791495
C         9.11873948762643   -9.56562199358002    5.16748268081632
H         8.60937781508052  -10.26898101516713    5.82633844203707
H        10.19116241397027   -9.69948150968852    5.28460837350037
H         8.84465046952421   -9.81215231171237    4.14309484716561
C        10.25247643881746   -5.00382896002300    6.91992978700486
H        10.07563672416789   -3.99942822175491    6.53997369984718
H        11.25826203261380   -5.31427220545404    6.64723995982934
H        10.19318964519120   -4.96204914833522    8.00848697776901
C         5.09258571933281    0.47031785127086    1.84053239623614
C         5.75170229902303    1.47428327506631    1.12803883321076
C         5.46409914200606    1.63500925628015   -0.22089792853948
H         5.96985249633463    2.41512333410980   -0.77278163128253
C         4.56131012020775    0.81243840062158   -0.87404344874819
C         3.94008447699665   -0.19865883070422   -0.15099136053897
H         3.24108242159739   -0.85274338308965   -0.65301523356267
C         4.18986434877279   -0.38440636273758    1.19752964755859
C         6.76940472352532    2.35412889002821    1.79062137913782
H         7.47357182002884    2.73515696297603    1.05474372370413
H         7.31662656089461    1.80077839347980    2.55133578437345
H         6.29319425071984    3.20643574982896    2.27750416061715
C         4.25930309927131    0.99035021102985   -2.33170123418137
H         3.19624154331421    1.17744849693001   -2.47935221961540
H         4.51733215545421    0.08786945153677   -2.88447263507530
H         4.81974704387917    1.82389949207632   -2.74734094599099
C         3.50195523969980   -1.46291057421752    1.97334892319611
H         4.22627105953281   -2.15854951232129    2.39547955295691
H         2.81523510399604   -2.01612717935767    1.33834081557429
H         2.94326819400112   -1.03501400159266    2.80564184648878

