73
CSD_code = NACFEF | q = 0 | S = 0 | Stoichiometry = C33H33CuIN5 | MND = 4
I         3.92022866052965    1.81219656243392    9.54722884209030
Cu        3.04654724017506    4.12669461186469    9.37593258088228
N         2.63815673322278    4.73567360350871   11.45333075143446
N         3.41199696128431    6.05579584851108    9.31798176482572
N         2.78478026875729    4.58428545153699    7.24075801241769
N         2.08285038484785    2.50883852216038    6.53053864424214
N         1.73297097224918    2.77525012685907   12.25935844184339
C         2.32989232639123    3.96160333662772   12.50227490640326
C         2.60888507309836    4.37312861540174   13.82150049185603
H         2.35861653596293    3.71550603009760   14.63829710622486
C         3.22645545524205    5.58244288893481   14.02810924108579
H         3.47957696458539    5.90337582046106   15.02778270622374
C         3.52627327273671    6.39209017325686   12.93772151218299
H         4.02076031645881    7.33922888416553   13.07493931646166
C         3.20043278863625    5.93687454861182   11.66877576903146
C         3.38069649333163    6.74476221953974   10.46130484314928
C         3.42544257638851    8.13535139633357   10.46332391703541
H         3.40024893865140    8.68454052308433   11.39033860393728
C         3.47073358756752    8.80196720612694    9.24910522097523
H         3.50665730796458    9.88082075482002    9.22185723009346
C         3.42921016408071    8.07484517148061    8.07002290667910
H         3.40445738790033    8.57889667555867    7.11779515282509
C         3.39453457051072    6.68537160803403    8.13997803612320
C         3.26041166735314    5.81208934730695    6.97250632771836
C         3.55819570642309    6.22979000860097    5.68374333968307
H         3.98234847225159    7.20268549315931    5.50092209643739
C         3.31986010352191    5.35243189017046    4.63101557875762
H         3.54458464761714    5.64900375014371    3.61720486778496
C         2.80507896841140    4.10729397820457    4.89273986146103
H         2.61289810580141    3.39507893020351    4.10670984140533
C         2.55956645503996    3.73338496970532    6.23091985023787
C         1.55444240194577    1.60505522593528    5.58357044652439
C         2.18357243803058    0.37530238054587    5.36597067508530
C         1.62806969801409   -0.50366027146596    4.45042066322791
H         2.11184993622041   -1.45422009835010    4.27644707034024
C         0.47248325608168   -0.19066411691412    3.74697663204431
C        -0.13508905758492    1.03242051695003    3.98220434993886
H        -1.03997904383108    1.28865139059339    3.44921974535338
C         0.38342086730893    1.93718453011015    4.89738462088652
C         3.43642231235357    0.02293909023089    6.10236255195453
H         3.21264377044082   -0.26151160266513    7.12982592877373
H         4.11749781850037    0.87029267789928    6.14292117409118
H         3.94133661556756   -0.81113358342662    5.62321840253001
C        -0.10785775229953   -1.16868821059497    2.77072212156616
H        -0.55453318924344   -2.00829433074938    3.30338432001982
H         0.66719549582811   -1.56434676410625    2.11691891557131
H        -0.87737181867212   -0.70151346094943    2.16123380184635
C        -0.31310499302300    3.24204948236129    5.14366789024146
H         0.15104557442996    4.04378518796186    4.56712394161823
H        -0.25845823292153    3.51669170520325    6.19553634699831
H        -1.35772306051646    3.17434444999035    4.85010839120382
C         1.03814536666739    2.01687021092822   13.22327801698737
C        -0.06453146647847    2.57192188448542   13.87933817785736
C        -0.74636606987771    1.80190839980439   14.81162520631493
H        -1.59651783889159    2.23322231267889   15.32146739742938
C        -0.37339109514987    0.49735034776388   15.09000464602017
C         0.71287046480508   -0.03935680153697   14.41115267535377
H         1.01258355547612   -1.05728038579979   14.61574337892278
C         1.42832016226668    0.69818674285915   13.48286028740599
C        -0.53116994887655    3.96677296290140   13.58532948196710
H         0.01146445935463    4.69441470630781   14.19108376717171
H        -1.59076314420110    4.06309553280194   13.81083512481858
H        -0.36970559016904    4.21959056518580   12.53904977852912
C        -1.11881109823809   -0.32764871825891   16.09508137636720
H        -1.46798226252396   -1.25404244104561   15.64142783883636
H        -1.97655325827294    0.21422953832237   16.48537377941866
H        -0.46681536334316   -0.59087843222967   16.92743373086241
C         2.60008503452970    0.10052979628583   12.77213399265071
H         2.34731611964494   -0.13246925480931   11.73841918988647
H         2.91457896623748   -0.81864369280723   13.25817073926311
H         3.43974704187373    0.79164221460968   12.74996049891203
H         1.86440929595787    2.37534846217933   11.33857830406778
H         2.23957452561773    2.17465290391592    7.47471685965586

