73
CSD_code = NACFAB | q = 0 | S = 0 | Stoichiometry = C33H33BrCuN5 | MND = 4
Br        5.24819096165236    2.64161322657029    4.76173794785974
Cu        6.13291009228127    1.18529460998845    6.23806233562612
N         7.20708582182136    2.51696979463095    7.70637185477467
N         6.28014537021278    0.01656193292009    7.77955989478770
N         5.63109346135645   -0.81785416839986    5.32734821129380
N         5.35424133971523   -0.25806408002835    3.10765511491626
H         5.55437374190833    0.70570005681699    3.35529912730631
N         7.52511772035932    4.41717808790924    6.44017437316148
H         7.03992724292979    3.95347067845606    5.67843043937497
C         7.48231532811791    3.82963942782305    7.65035956401366
C         7.73578989719772    4.57152525831282    8.82537325223977
H         7.93647410909207    5.62746588522738    8.74301125610700
C         7.68326893136741    3.93984700973197   10.04185473030205
H         7.84805862047184    4.49448996661076   10.95404258143082
C         7.40887874974579    2.57668790381164   10.09289578295473
H         7.33948285465525    2.06461963486939   11.03799452107269
C         7.18944524406700    1.90330469493698    8.90064040488483
C         6.94586637038222    0.45998715752014    8.85283355248683
C         7.41740865794179   -0.41517326657096    9.82570108586385
H         7.96410144242277   -0.04220162821602   10.67635593495535
C         7.20086053955740   -1.77433061328498    9.66772486457768
H         7.55948235458606   -2.47458116390067   10.40709254758604
C         6.54506779615414   -2.22574398204225    8.53396646519023
H         6.40345473389887   -3.28077452320688    8.36501415543112
C         6.10008807176680   -1.29728750880281    7.59889828106244
C         5.46627321171329   -1.68694001637484    6.33745651875262
C         4.77194716485185   -2.87897948846734    6.19620041653743
H         4.61651514131380   -3.53099435278872    7.03946322290493
C         4.24604075031317   -3.19362728181157    4.94705013680519
H         3.68750498463738   -4.10774373789283    4.80813375722021
C         4.43906157937070   -2.33075452818673    3.89805866813513
H         4.04197989981711   -2.53339826198369    2.91652073500675
C         5.14227837376999   -1.12549323915704    4.11553146890772
C         5.08438721246925   -0.52797345035673    1.74943749960842
C         4.13254028371771    0.24073175476211    1.07065940304267
C         3.89975445788098   -0.02015522876962   -0.26897162143906
H         3.16304661511389    0.56700499163206   -0.79854034254386
C         4.58359089058064   -1.02131855114591   -0.94716033819860
C         5.53040897794630   -1.76058065082049   -0.25739141517493
H         6.08208362286958   -2.53418911896090   -0.77311189674581
C         5.80184292858862   -1.52409501360295    1.08339938626239
C         3.37761478341189    1.31147807596901    1.79096223256920
H         2.94768186136723    0.92668059580108    2.71389537163703
H         2.57814700675883    1.70197750597429    1.16806764074876
H         4.03559939571956    2.13482139766411    2.06603277921892
C         4.30140984017894   -1.27718625456671   -2.39700249549460
H         3.24273562213065   -1.48389025395528   -2.54812362326996
H         4.87752398217992   -2.12292533423764   -2.76380053713398
H         4.55632238511717   -0.40017209323515   -2.99099194914580
C         6.85964882742004   -2.32052715438864    1.78758906124587
H         7.38955984881654   -1.70213818376646    2.50961773311591
H         7.57408890335411   -2.71647313176032    1.06983459073785
H         6.42055116004225   -3.16049169861148    2.32822976498336
C         7.96258415814300    5.73933089398255    6.20906294608742
C         7.05686392124877    6.68964304413080    5.72590284202438
C         7.50936131759293    7.97548229028549    5.48335874553396
H         6.81462426914236    8.71642298307550    5.11417663439305
C         8.83118971246886    8.33852418807846    5.70891380429774
C         9.71245759352414    7.37651684186500    6.17474393798493
H        10.74795712866434    7.63825241343736    6.34204129329125
C         9.30159023182011    6.07359226621016    6.42118269004064
C         5.62789860381772    6.31642061052148    5.49326116605877
H         5.20690077501395    5.83601551673998    6.37486647063807
H         5.53950304151912    5.60782225642247    4.67062477988236
H         5.03548304283469    7.19562932448141    5.25714901766344
C         9.28082318157148    9.74429359439450    5.44671698082598
H         9.06739496821343   10.02455441772064    4.41622062748092
H        10.34796591963694    9.85253800953596    5.62336232732414
H         8.74924877773583   10.43902848587563    6.09648675455649
C        10.28865728131137    5.04785899927020    6.89286580935216
H        11.29884433280693    5.34067354818004    6.61726148920237
H        10.06995592887586    4.07570162127323    6.45511098987134
H        10.25012664894282    4.93980700595579    7.97794624590445

