63
CSD_code = NACHIJ | q = 0 | S = 0 | Stoichiometry = C26H29Cl2N5Zr | MND = 6
C         3.77129044786910   17.85226729420051    4.53354692150907
C         4.33740125507490   15.68012008807077    4.71738353828411
H         4.27097370321091   14.62645035371893    4.53961541149310
C         5.18513213300302   16.39020933928826    5.49805969025756
H         5.99158215257767   16.06793389765856    6.12391478428775
C         5.54065953958867   18.76668085855894    6.04019685593029
H         6.56768163827200   18.81197638869401    5.65522370646538
H         5.57424006087871   18.53636966899813    7.11128478954545
C         4.84714873820968   20.12425401133488    5.85725626527749
H         5.44612570899705   20.86959013271309    6.40125438183977
H         4.86287827609159   20.39603453891758    4.78138638228427
C         2.45016013643277   16.25129946625471    3.20490777338446
H         2.48103416494758   15.17581805636018    3.01299472597356
H         2.63333262365256   16.79085105658568    2.26899499491307
C         1.05582855074711   16.64328809831491    3.76486125773612
H         0.29247168865629   16.23349297449242    3.08569190505012
H         0.93725482829723   16.15603531224918    4.74492846841069
C         3.07507731624726   21.04995051550187    7.20301678992598
C         2.14010694438052   20.73334177473911    8.21373671475842
H         1.88384834700060   19.68718189811688    8.37215107925005
C         1.60966459646137   21.71460143780110    9.01700114975037
H         0.89755788280293   21.44820294586415    9.78465063333520
C         1.98462226942964   23.05233415772952    8.87168297125014
C         2.92961073948981   23.36554759847585    7.90913520811805
H         3.25223733179263   24.39144920488975    7.79055360472051
C         3.47071841632790   22.39389882186707    7.08348936117200
H         4.20359143633471   22.68202543948580    6.34068096349051
C         1.38090682543392   24.10422990317481    9.75298311936627
H         0.30255397595963   24.15129987093831    9.60119253475450
H         1.80499843886592   25.08280494048114    9.53915377879153
H         1.55730168734705   23.87082967201478   10.80281804364032
C         0.45591099379782   18.78269285118360    2.84121690651121
C        -0.13842279252803   20.04698221219257    3.05553806147963
H        -0.35997199541907   20.34886005007790    4.07197220300398
C        -0.51319298156035   20.85635666302680    2.00723093833648
H        -0.96250820835685   21.81829568487330    2.21577132155572
C        -0.35093330862564   20.45411054262310    0.68370532488575
C         0.14745758273534   19.18012330734751    0.46159759198845
H         0.23939013050859   18.81602806335140   -0.55333007707888
C         0.53448647012405   18.35540153248045    1.50173025738405
H         0.88892890731465   17.36658638045966    1.25123939085953
C        -0.75966212279160   21.34756135064992   -0.44979898063496
H        -0.44663204332278   22.37393648214150   -0.26371291013808
H        -1.84468624774911   21.34575008957584   -0.56315661303836
H        -0.32079160570779   21.01102418104801   -1.38660045873370
C         1.66745832072520   22.05620259552652    4.87526541423452
H         0.95309405203412   21.94692754680633    5.68651528119899
C         2.00101782958295   23.30614877527474    4.38160835452894
H         1.57885632995154   24.18992816600261    4.83246213577572
C         2.87512546956909   23.39856712984213    3.30966895488250
H         3.15242471360724   24.35783889935898    2.90032930453243
C         3.37185693458558   22.22216090549829    2.76136081008792
H         4.03902132872931   22.24574470595773    1.91384390171540
C         2.98674290836917   21.01329730573634    3.30961219540752
H         3.32089486697114   20.06895850977356    2.88705205702308
N         3.49462492196786   16.58415888628640    4.13594570286339
N         4.82957160421753   17.70460393186022    5.36923904296432
N         0.87509295024224   18.06657241305995    3.93761355770348
N         3.51359890245493   20.03116237418265    6.39495217011832
N         2.15183976283100   20.91773111017237    4.35514210798571
Cl       -0.14609133589021   19.70488994178030    6.48504096973289
Cl        2.03406657526668   17.15912431060491    6.97150267688242
Zr        1.89083923215560   19.01820338364785    5.49439460101826

