47
CSD_code = NACPIT | q = 0 | S = 0 | Stoichiometry = C19H18MoN4O5 | MND = 6
Mo        2.86643139639804    7.12499613717599    4.05204667059107
N         6.74641602754113    5.91771204055446    3.83367798856121
O         2.60460266027363    8.33028351297529    2.96151519558459
C         5.58627281657097    6.30747946598113    4.41451043107964
O         2.47420196070014    5.58981148552226    3.60574076269602
N         7.45800240557449    5.13110361626108    4.67729196137330
C         5.54649387634166    5.73054740335544    5.70097655572311
N         3.39673398220382    6.55618739576958    6.11074454280412
O         4.72359512805371    7.11428440493168    3.88431173440746
C         6.77620564362257    5.00334471924208    5.78612768419925
N         2.32324044747410    6.66141724213736    6.95382244998777
O         1.40131896059903    7.61891504516471    5.13053659671968
C         7.30897396701861    4.17445260143457    6.89721807773181
H         8.23672323000019    3.71409541592009    6.57032306614940
H         6.59976446192770    3.39682598549333    7.17169234471021
H         7.50849280873298    4.78621665577190    7.77533593643296
O         3.61349698217453    9.48984394184700    5.19673535186067
H         3.69779060049158    9.72650934200745    4.26154559311715
H         2.76046672662537    9.84487017985669    5.47430474420784
C         4.43773877101205    5.90565361693052    6.56980308020628
C         4.45251608573812    5.33013405574416    7.94945014806564
H         5.38057316166589    5.58551244476376    8.45364929451539
H         4.38065244282051    4.24538324091056    7.89125333452843
H         3.60289863221586    5.71001231212580    8.50897928450026
C         1.30343776118568    7.19089514317723    6.36313048861781
C         0.02583080829852    7.33974473425004    7.06805458909340
C        -0.09730643774856    7.02694750132709    8.42093419987223
H         0.76886208406002    6.67065993105612    8.95448611278263
C        -1.31632694559394    7.17934551908434    9.05280551862898
H        -1.41265265109430    6.93987041806816   10.10141594449601
C        -2.41735683252701    7.63777948378843    8.34479862433051
H        -3.36823530876448    7.75391116240031    8.84341640439858
C        -2.30007022703179    7.94459306273925    6.99813778614071
H        -3.15954627826509    8.29688858644197    6.44760442621139
C        -1.08400799365904    7.79843785904549    6.35851649800455
H        -0.97191011882611    8.02616938451010    5.30672088052999
C         7.21346485666104    6.19129804294539    2.53861336896943
C         8.56319958835388    5.99561893795710    2.26391532746035
H         9.20649056765549    5.63807756465218    3.05153197959738
C         9.04691165864472    6.25291041377338    0.99536627662716
H        10.09455325697007    6.10249581982533    0.78222802262919
C         8.19287277922323    6.70400551335908    0.00196606112538
H         8.57324147448997    6.90771908700577   -0.98758772074371
C         6.84798952131895    6.88759058693509    0.27885165638524
H         6.17746538734009    7.22854073348382   -0.49507793241128
C         6.34617982029527    6.63034721183125    1.54277266816524
H         5.28881005323515    6.76356104045937    1.74500598933254

