43
CSD_code = NACREQ | q = 0 | S = 0 | Stoichiometry = C17H15I3MoN2O3S2 | MND = 7
Mo       -1.55936466338948    3.46772645424156    2.73390414931943
I        -3.06994035494129    1.43490589186703    1.39358108850532
I         0.50291270727861    4.62611067713155    4.36170002519217
I         5.49078972835214    2.21853173547057    6.37297310065663
S        -1.22890861504776   -0.22390266089108    5.78438750280096
S         2.00709049699024    1.66395760015360    0.03306722919814
N        -1.28025666893119    1.94377941253322    4.00555044866800
N         0.02495707583062    2.75239509114994    1.69584623084572
C        -1.89848038629397    4.45649250685992    1.06723045143716
O        -1.98516769379074    4.94847566130542    0.02044778686817
C        -1.92088524892574    5.38581358077576    2.54609893193959
O        -2.23477132306038    6.50612664882043    2.54690381151029
C        -3.18135251433323    3.97636589844810    3.72215355709608
O        -4.11730569905293    4.34964569348933    4.26597519667420
C        -1.23784945319919    1.03932832924352    4.73246828868422
C         0.84751477638073    2.29105421145646    1.02070690625155
C         0.46209235097553   -0.92532104980574    5.37771922382376
H         0.85736340080450   -1.22728117980493    6.34496710050673
H         0.27165416085387   -1.81155941399295    4.77767192696632
C         2.82028015095924    0.50520785503335    1.26115521141375
H         2.51820332445849   -0.49374461724648    0.95548185816708
H         3.88715733457563    0.61588484559890    1.07732579872648
C         3.61461834073799    2.95730288682556    5.54959248490789
H         3.03297186710289    3.32335621767824    6.38757960711890
H         3.87785296130961    3.80277325495076    4.92717108392659
C         1.35265836709373    0.05057597578321    4.68752078819849
C         2.07303789202002    0.98336138633379    5.44455270065934
C         2.91775384213678    1.88419188568162    4.79045281758871
C         3.15256366068893    1.75725297259176    3.41402289559060
C         2.47047681508118    0.77781056851919    2.68595441529163
C         1.47504201132194    0.00446371705495    3.29633997232938
C         1.91395746539386    0.97649877158329    6.93561103524090
H         2.45163968482675    1.78219985243366    7.41819348116956
H         2.30074965883222    0.04209912520446    7.34427953677789
H         0.86516439392811    1.06703152848345    7.21543338423417
C         4.10920872493604    2.70197686917599    2.75152362799483
H         3.72361511660485    3.71920923187595    2.82874784478066
H         4.25579406709613    2.49259961654093    1.69824971599721
H         5.08224934845277    2.66826329659740    3.24004219136271
C         0.56820708818002   -0.87022833354782    2.47492431334180
H         0.42646362156060   -0.46633612103099    1.47555900115312
H        -0.42351708109997   -0.93330237830605    2.91770312123650
H         0.96615926729346   -1.88189349627035    2.38183015584572

