54
CSD_code = NACRAK | q = 1 | S = 0 | Stoichiometry = C23H24CoN6(1+) | MND = 6
Co        4.06493523760728    0.23256520717961    3.76951693596157
N         4.94274998129367   -0.29801085854196    5.37275934267182
N         4.45924326660115   -1.57573483326826    3.18687705374395
N         3.12629558860216    0.57707236212701    2.10620705218434
N         3.50252843373282    1.99258173442590    4.22977582041394
N         5.72553311077428    0.89587105266668    3.02765418213082
N         2.39253704458130   -0.35320918421297    4.67065938825805
C         5.34695640032023    0.15600199593628    6.55715874769510
C         5.77725784355663   -0.89767198059338    7.36786413523890
C         5.62992029413432   -2.05975722559760    6.63270559477669
C         5.11118456609286   -1.67036492941247    5.38939685189448
C         4.87330739654121   -2.31608211365261    4.17170306331740
C         4.46627424740502   -2.11072056192085    1.84619670636754
C         3.29823132084825   -1.64297579229632    0.97975019039507
C         3.23526289158530   -0.12192283817171    0.84776510720469
C         2.40953125985873    1.65907396314254    2.17576351056601
C         2.55192400825686    2.43718444633165    3.32908044656684
C         2.04258320047305    3.67007970132482    3.76171311239572
C         2.70320390208765    3.96576448024172    4.94000731503279
C         3.58816604994864    2.91293968305970    5.18757189641751
C         5.77400943490687    2.04459434949696    2.34539568780328
C         6.94605518391130    2.57660824392410    1.83796551378308
C         8.13959188963344    1.90234939003311    2.03656901804597
C         8.09509448921303    0.71135348012924    2.74240935290940
C         6.88028947027063    0.24900434210358    3.21632977170451
C         1.50428087473614   -1.15165202800960    4.08028677168561
C         0.32926050768687   -1.56556687712371    4.68191927236048
C         0.04372904716426   -1.13728022983616    5.96732241648785
C         0.96231753326129   -0.30651605433996    6.58706362572538
C         2.11180426505482    0.05838923962959    5.91013732168240
H         5.35236980561665    1.20044654015592    6.80532346735751
H         6.15967455554012   -0.80478155775746    8.36468026049455
H         5.86561737846874   -3.06080589073416    6.93449520987347
H         5.09159597050201   -3.37231195450874    4.03858216037660
H         4.46813470131128   -3.20706674262509    1.88400821885017
H         5.39934136954675   -1.79122608408665    1.36032710204873
H         2.35646651258792   -2.03257619391232    1.36804609470702
H         3.42932215678549   -2.06291095942552   -0.01887008595699
H         4.15747593165593    0.21480368149941    0.35277191178979
H         2.39168541171705    0.14689866669824    0.19972960762684
H         1.77834694719259    1.97915351341899    1.35101525476643
H         1.29492111522610    4.25523677783141    3.26438312680242
H         2.58094260661571    4.83760012074407    5.55111046450901
H         4.27607869195640    2.83291458209712    6.00769082397363
H         4.84647832048963    2.57622830989244    2.19592133478985
H         6.91501045830502    3.50961081240320    1.29868576994722
H         9.07086695063699    2.29191983861556    1.65697839036822
H         8.99007927287454    0.14096530628437    2.93200495144701
H         6.84988164614605   -0.67525227790096    3.77321364114493
H         1.73355149838625   -1.47884046700518    3.08024787931501
H        -0.34600041843031   -2.21271662692551    4.14546691519546
H        -0.86254488250686   -1.43986252402670    6.46779747267241
H         0.79712555719079    0.06088684854969    7.58685401834964
H         2.82661970204474    0.70631811594313    6.39261080413081

