92
CSD_code = NACRUE | q = 0 | S = 0 | Stoichiometry = C34H54ClP2Rh | MND = 5
Rh        3.17899232780105    0.99745391596047    2.65722217270218
Cl        2.49810817366668    0.69131617262049    0.52515539029664
P         4.28088941636926    2.89046306136417    1.86404246172725
P         2.16350209756498   -1.05690038093297    3.03076308746952
C         2.94233815451648    1.69889036452894    4.61394734687474
C         4.17464668972647    1.05405894762285    4.50479375475267
C         5.26584183986466    0.62059039225498    4.96931120217077
C         6.48183714883167    0.29291648107325    5.41102196056590
C         6.76326439468410   -0.95184419282205    6.11347673552305
C         7.55438163606082    1.28756710366251    5.20893984270843
C         5.80558140003693   -1.96832277534482    6.17395079548327
C         6.05304420741432   -3.14456201660105    6.84957328547525
C         7.26467869702898   -3.33587930190373    7.49485983044173
C         8.21449126523741   -2.32806434870166    7.46839526610003
C         7.96932827622503   -1.14896677812963    6.79207420139039
C         7.35018955139436    2.61818542681226    5.56610940709176
C         8.32919753384535    3.56668257926154    5.33567819898849
C         9.52560537900773    3.20075440255866    4.74166754809649
C         9.73729617688932    1.87990570937959    4.38109483293141
C         8.76122248477968    0.92876630371570    4.61203596819793
C         3.30877481439777    3.83359842309907    0.57206262236483
C         4.94269568405397    4.13422301260152    3.11999936065563
C         5.84747502782360    2.45291685643753    0.93915535300109
C         0.48880806983430   -1.26716754838230    2.22783337481050
C         2.02979440252838   -1.63134476471085    4.82821346812699
C         3.16282263422285   -2.43788988918082    2.24227590731202
C         1.88806221050076    4.11626155709540    1.06126713614972
C         3.95950448596804    5.08184869762175   -0.01100836537424
C         3.84059076621538    5.07848209904241    3.60401895288056
C         6.17213026850104    4.95428902813096    2.73479538098391
C         6.69157131959231    1.58094734244952    1.86415978533009
C         5.59491034792432    1.71912803515227   -0.37361892430168
C        -0.41498517693322   -0.07096724749817    2.52410977128226
C        -0.22079951125136   -2.59317846372490    2.47562508524429
C         0.77623291002325   -1.08133527155078    5.51077761308080
C         2.14681237072455   -3.12676035912053    5.11234727409909
C         4.63240889075133   -2.08786796447572    2.46801234090196
C         2.91337975284771   -2.64164521978324    0.75018390725263
H         0.74753261417326   -1.20604321047652    1.16432455233942
H         4.85459452182577   -1.81552417248090    5.68751640006169
H         2.92403732341046   -3.37318182309542    2.75617209391282
H         6.41854645149073    2.89712201508843    6.03831909166821
H         0.91413086370100   -1.08212325436765    6.59211673718496
H         5.11006871644793    2.35779730754529   -1.10777371605987
H         2.89263528898230   -1.13741103215654    5.29484851542312
H         3.13149755035742   -3.51168051687247    4.85903494348574
H        -1.06888364634004   -2.67936289938387    1.79661531042496
H         5.28557144697516   -2.86191584326585    2.06721268644819
H         3.36704661253732    5.43091141645822   -0.85664549988673
H         7.61846963113605    1.28277960634456    1.37593905451989
H         6.38472116234864    3.38130036331627    0.72041408409517
H        -0.60392621802721   -2.66037711980749    3.49033615107810
H         1.99747004041184   -3.29025235758727    6.17987785760359
H         0.43996558329236   -3.43844775113355    2.29737995844516
H         0.56186340603983   -0.06292736133395    5.19615583468460
H         4.00213484721633    5.88881531214183    0.71609066740391
H         0.17257958330278    0.85082292361157    2.49954166243281
H         2.94650986019345    2.77936850234047    4.71106722783569
H        -0.89754828855288   -0.15412226932114    3.49409597297208
H         3.02190767518826   -1.70748447542829    0.20552103102401
H         1.39289567343285   -3.70009538753608    4.57897836045588
H         3.22143718218213    3.08813456427127   -0.22722426333742
H         3.64691295257993   -3.34812516015951    0.36215236310498
H         8.71383319553768   -0.36646542834597    6.80272750747502
H        10.29028318563411    3.94174679992296    4.56006501788917
H        -0.09157987661445   -1.69679549024721    5.28863894787352
H         5.23062191115998    3.48888628121698    3.96069126672835
H         1.51027024469101    3.25788220207687    1.62303288283473
H        -1.19336908320219    0.00484362506472    1.76654564922129
H         6.54465460092741    1.38697518978975   -0.79196104481298
H         2.16944687449803    1.22098859724627    5.20647608910784
H         4.11003515098480    5.50226917922655    4.57145304165477
H         5.29784566619494   -3.91751441322609    6.87757710094942
H         1.22687965317928    4.27937410253004    0.21164972610652
H         8.92122046328896   -0.09667985917668    4.31088170573068
H         4.85787579217457   -1.96174780471302    3.52481796997062
H         6.37727628037798    5.66536825308633    3.53503950944672
H         4.96886641979158    0.84451752474830   -0.21311084614759
H         4.85560906889923   -1.14821816254369    1.95391431359018
H         8.16081040864098    4.59475498477951    5.62274773843444
H         4.96542878417106    4.87701151141741   -0.37025388047290
H        10.66755596160701    1.59087823082347    3.91331515066118
H         3.70658616036073    5.90314571211057    2.90812608514627
H         2.88727154245419    4.56561492523192    3.70911797595499
H         6.01450561102644    5.52009532772011    1.82101791295108
H         7.05618976140082    4.33347958840937    2.61996246631195
H         7.46173621501040   -4.25748565354563    8.02231355104633
H         9.15452401824560   -2.46039527592256    7.98512627888845
H         1.84434150678764    4.99715501829377    1.69569191344130
H         6.94257726426489    2.10053876721752    2.78497529958024
H         6.13677037686727    0.67957604291445    2.12979158451436
H         1.92483588865595   -3.04792654231762    0.55303867574434

