55
CSD_code = NACSUH | q = 0 | S = 0 | Stoichiometry = C26H22ClN5Ru | MND = 6
Ru        3.27946787249366    3.47141511071400    2.58423953398930
Cl        2.19901463883550    3.48526158426559    0.47524923619611
N         4.36222260993202    1.91650720302422    2.00239337264604
N         4.63478961253782    4.40732798148440    1.72612853782579
N         2.60748966287305    5.30588138475347    2.92617525404402
N         1.76328059711608    2.43916089862261    3.50940503371305
N         4.00392927572544    3.34601154592938    4.47112677098254
C         4.15269884960409    0.61806792610416    2.21845922994019
H         3.28640871931156    0.36952398566657    2.82080550973685
C         4.96820055400888   -0.37408665838125    1.71475143397627
H         4.74761597920104   -1.40944191237010    1.91872069420335
C         6.06774726473048   -0.01474394346726    0.94068528581141
H         6.72175383681273   -0.76644419362217    0.52728938691284
C         6.30012791315075    1.32588987684264    0.71094310324297
H         7.14137766613745    1.64168676759696    0.11487934700321
C         5.43820458499060    2.28056326458463    1.24955508994885
C         5.58707158084486    3.71686096145032    1.06796440401877
C         6.54081098965308    4.38800114896033    0.30841868248555
H         7.30521606768450    3.84361572142771   -0.22165217460331
C         6.48191233188046    5.77219259465619    0.22766337092657
H         7.21205982169830    6.30994115368303   -0.35655014181848
C         5.46612867604567    6.46286366136511    0.87385877219782
H         5.39307004742176    7.53433490217077    0.78273319604362
C         4.53570569192338    5.74766101519716    1.62173695395190
C         3.37840570041304    6.26309563720628    2.33780480264152
C         3.05232190671702    7.61537687352752    2.43555478537876
H         3.67711681344580    8.35109838035892    1.95494929168650
C         1.93174384673274    8.00113696120929    3.14231179922647
H         1.66312200233286    9.04270086652897    3.22449735500292
C         1.15609958606765    7.01502709815055    3.74478545256108
H         0.27249424098478    7.27026981534925    4.30726892694492
C         1.53075472575552    5.69420763223102    3.60909530030779
H         0.94373247383163    4.90388772831691    4.06266455601995
C         0.65168739688677    2.00090890785418    2.92320236503308
H         0.55927460509873    2.21197424545024    1.86435938834088
C        -0.34204754557444    1.31961232744358    3.59813525359831
H        -1.22292778813264    0.98781307328244    3.07334847209344
C        -0.17637810058675    1.07825889360529    4.95921706768111
H        -0.93330573550210    0.54873038785951    5.51902635856954
C         0.96808130500842    1.52273872567437    5.58005088158439
H         1.12676420473008    1.35065847548865    6.63004534790105
C         1.94460214517360    2.20883531203828    4.83982124057446
C         3.17065852372428    2.71085109392878    5.36395195619088
C         3.77506019512143    2.70984907816351    6.63356080819741
C         4.99334831067300    3.36340003680912    6.46881476794499
H         5.72574338765287    3.54794045358141    7.23205788910610
C         5.09847605631515    3.73865660422395    5.13005348725648
C         3.26141605226741    2.14566421058194    7.91497715274902
H         3.98333974433752    2.32941700889640    8.70762354471611
H         3.10654568496624    1.06895118151837    7.83749514390833
H         2.31667464260697    2.61048322262118    8.19896063435362
C         6.22808072863232    4.46267036780191    4.47636495462451
H         5.89503218276631    5.41801428643965    4.06617536429964
H         6.65186351923818    3.87072578404103    3.66294257145500
H         7.01011434370190    4.65539334916167    5.20660319667784

