76
CSD_code = NACTUH | q = -1 | S = 0 | Stoichiometry = C34H26F3NO10PPd(1-) | MND = 4
Pd        9.30366924549045   23.26653274489001   14.96147606514838
P         8.63771579190762   25.26634835458415   14.13124618213116
F         4.42583578660222   24.44231200210274   10.05973439007886
C         7.68892664086969   26.24716466750164   15.35946180855610
C        11.11122409592974   26.33654208518808   14.34883749599196
H        11.19761559954308   25.53494934631647   15.08014158100755
C         6.10400752177167   23.58427509950462   11.48378631896885
H         5.88367802299409   22.58673623491221   11.13725020363642
C         5.38929535864197   24.66044762856577   10.98795385786696
C         6.59368526083176   26.18240244897741   12.36642717046820
H         6.75185904373375   27.18258370987207   12.74453283375385
C         7.55907944035690   27.86735673313289   17.13957419483758
H         7.99378148218722   28.65925569736714   17.73011934410857
C         6.40138703604503   25.81364112903428   15.67576103292189
H         5.96804242621179   24.99023908029943   15.12377383391936
C         7.35340554714257   25.12455580911359   12.84935627889242
C         5.68724227290262   26.40033660507106   16.70148980474762
H         4.69531626905312   26.06372841877400   16.95948534966852
C         7.08913438787114   23.82549442579194   12.42278266225188
H         7.67506678982327   23.00700329271548   12.85044656338673
C         5.60952144828511   25.95559382346073   11.42010522149487
H         5.01169121873329   26.76190038319938   11.02272401435071
C         8.26219490691844   27.26841053457959   16.10904238409764
H         9.27093185322573   27.59047866915058   15.89517590776743
C        12.18212309539365   27.16916589631732   14.08272730635662
H        13.12550984578004   27.05856602590463   14.59445771699111
C         9.90421637980203   26.49735770202801   13.66893254783873
C         9.77904265937813   27.48488916780053   12.70284090149235
H         8.86382690674626   27.58331819318965   12.14180046831493
F         5.58931563128656   28.00875534200961   18.42879882022031
O        10.83115998103223   18.86752193682038   16.00888809800484
O         8.09654110588612   20.15747662038621   16.21804260773277
N         8.04756715227599   23.51841474446122   16.65468283141957
O        11.83931415185773   20.63134768518456   11.50032960385706
O         9.48729340993068   20.90382890929718   17.83769085076734
O         5.93285596964715   22.64986793305916   16.94748845014426
O         9.98383886137496   24.55200164337993   11.99016721790285
O        12.10537668628203   18.91952751469362   14.16490081443253
O        12.02149640703124   23.64030328780809   11.77700742175739
O         9.99566699480752   24.63151971953088   17.07629271002421
F        13.07248118458601   28.97434843420910   12.84327989051659
O        13.42272121027887   21.16694822103722   12.99738287290959
C        10.81657685850110   23.73323755681506   12.37133583607458
C         6.92632919322706   23.22286315553814   17.35411883353877
C         9.19743412428699   20.80792199768731   16.66511764420994
C        11.32629633251141   19.47603502644931   14.91045095064327
C        10.60456508681732   22.84452812288311   13.49388152359589
C        11.21719775579599   21.63970254036169   13.58989402967766
C         8.90894314852407   24.19099147374749   17.44522348137709
C        10.80737276056733   20.83627090842911   14.73984760066086
C         7.20059278201814   19.64998203699617   17.18966265328498
H         6.91000266709945   18.64556520944497   16.88023649533141
H         6.32411409801577   20.30039239247369   17.23375418434508
H         7.69107203827741   19.62168293316961   18.16615676519532
C         9.87727934111084   21.43084055332369   15.53082475821095
C        12.24197240873161   24.51322983070526   10.68549100686572
H        13.29106734481367   24.40870290672244   10.41682912409848
H        12.01785149389847   25.54419307814699   10.97390620656946
H        11.60345435330172   24.23669853314191    9.84281014485837
C        12.15501077143601   21.07812482527937   12.57420703087549
C         6.28105686842345   27.42327922415933   17.41917258095467
C         7.10424722942069   23.77545220212902   18.75401937452218
H         6.35316271450028   23.67262616101769   19.51599587711178
C         8.29442985313885   24.35568511040346   18.80451575075458
H         8.78729486761884   24.85615618718776   19.61737617761911
C        10.84666417846516   28.32120278258061   12.42336997037933
H        10.77621844696156   29.09049230898734   11.66917685300447
C        12.02809679853143   28.15250702312347   13.12139231185485
C        11.27945706840140   17.54750112804049   16.23635677685095
H        10.83392071843897   17.23309121544063   17.17745456392663
H        12.37053577738591   17.51985665375378   16.30098537885458
H        10.96157884815177   16.89008506743795   15.42222551309025
C        14.39081240457674   20.58043353595919   12.14753166968290
H        15.36278880996586   20.83617292789656   12.56364182256277
H        14.28947562452513   20.96968434242076   11.13122635563795
H        14.25367215206024   19.49676314691840   12.12921512303195

