117
CSD_code = NACXIA | q = 0 | S = 0 | Stoichiometry = C48H48FeN12O8 | MND = 6
Fe        4.01983869068505    7.39786529618494   17.10459637676199
O         9.25894056737703    8.43304660721502   16.20978377591709
O         8.85349232603752    9.82883345242662   17.79734553156458
O         4.70841089207250    8.58511994085793   22.31103653500728
O         3.36150372950359    6.92345344130840   22.53219747402535
O        -0.31388221488165    4.37822270183472   18.10547183340645
O        -1.07311046279022    5.45646522225618   16.40467313828783
O         2.77688264294488    8.22147646003638   11.88304302004970
O         4.74164374884117    7.36037798068895   11.70355497480834
N         5.21046957647572    8.09716085386161   15.72596573228050
N         5.36952853604781    7.74187622228180   18.46896791614570
N         2.71361165306047    6.96926882385595   18.50468828942122
N         2.76338134106908    6.77302162033293   15.72675631719891
N         8.53237726865579    8.95245956027413   17.02790868644729
N         4.02563585226173    7.68683286094871   21.86461865970491
N        -0.21669022906121    5.20513608909088   17.22521213665279
N         3.79478798327013    7.75473612912268   12.34458862661976
N         3.25834156984678    9.19851545075597   17.21422414738341
N         0.94494496252974   13.93464548891153   18.15704096544416
N         4.70985992025403    5.56420690818187   17.01999951179561
N         5.78338548152682    0.35538542684413   16.40586265098542
C         4.83301284098944    8.39635607978188   14.45129049207423
C         5.67158911397628    9.44799804395186   13.91927451209600
C         6.63678884590627    9.68152634235814   14.86057863033661
C         6.36156318685205    8.77942396116763   15.95656539764922
C         7.15779988891296    8.50499875687307   17.07159351808802
C         6.70410943499585    7.87314614471592   18.22498527892852
C         7.46292178691774    7.43940403304219   19.37747690328663
C         6.54791323529954    7.17410709877215   20.35981871699541
C         5.24792868374369    7.44382986747663   19.78603717635125
C         4.00976621719098    7.52403124595851   20.43626035632836
C         2.78166082526065    7.44514627476325   19.78083605373133
C         1.44709451677228    7.63324960983796   20.30816509008642
C         0.59240696352297    7.10619256475466   19.37803001077042
C         1.41612660002561    6.64865927822541   18.28198782396820
C         1.02873363066893    5.92648463785505   17.14856970779559
C         1.76267945340155    5.87838122430414   15.96436599530392
C         1.52249684923675    5.07743141658516   14.78169771415403
C         2.28884233028077    5.62352663139643   13.78870927382031
C         3.02977114843721    6.70930456798497   14.39729289462620
C         3.87655644615416    7.63434432807628   13.78357787790979
C         5.50148589634626   10.19602268428733   12.63721064222449
H         5.65178208992003   11.25955360224562   12.84257146438201
H         4.48441018968905   10.09126258457555   12.25899402450194
C         6.50161795590355    9.75601114717124   11.56391501672752
H         6.39446425771226   10.38092766345877   10.68106626684603
H         6.32383851931765    8.72207663506666   11.27842998038267
H         7.52122561842503    9.83765042362962   11.93149252160623
C         7.64822557302366   10.77937601154721   14.83146583625990
H         7.64818508739453   11.22752713932269   13.83811166365860
H         8.65619463082714   10.40414817741982   15.00756217343266
C         7.30637927212138   11.86502722756499   15.85814538702456
H         7.99552763998363   12.69887061763792   15.75399741515089
H         7.38189611608533   11.49243502328049   16.87663728834368
H         6.29328439144969   12.22986664950266   15.69690119729744
C         8.94078211872937    7.24995273215351   19.47743372966152
H         9.39086657548106    7.18464433498502   18.48640603428525
H         9.12918113149597    6.29300971447310   19.97235676199491
C         9.61745288705258    8.36314892076338   20.28258620867184
H        10.67538418334090    8.14356553210649   20.40093246338201
H         9.16377002343010    8.45479955676695   21.26592485335578
H         9.51793313102175    9.31666557941080   19.76968395059352
C         6.83053336155553    6.55810550353728   21.68995754494004
H         6.48180001348141    7.19683138708956   22.50237368146185
H         7.90979653777492    6.45822947344020   21.80488620526312
C         6.19651227659144    5.16771814928409   21.80396861677037
H         6.48303799043418    4.70993839049252   22.74718296027347
H         6.54135509671170    4.53001873200723   20.99133661202937
H         5.11094509922304    5.21074430233846   21.76845120357104
C         1.06130702353280    8.39545591723620   21.53125442722521
H         1.46217885985637    7.92334434902424   22.42952862680749
H        -0.02478823944184    8.38635715115156   21.62230632010241
C         1.53581662723607    9.84970468992343   21.44510201169906
H         1.21151412318912   10.39695676732470   22.32622137370846
H         1.11222920397694   10.33270371450792   20.56516583167206
H         2.61893440077691    9.92173122818302   21.38222053918866
C        -0.89847608019477    7.09480182772192   19.45928570468346
H        -1.34073379965061    6.97420537803256   18.46995600889607
H        -1.23077555875887    8.06567007799079   19.83750799204314
C        -1.41384871545695    5.99651359246280   20.39378890597409
H        -2.49588790837068    6.05743158355690   20.47665731381045
H        -0.97733494195129    6.10186726926256   21.38361894014930
H        -1.15017947685271    5.01569480609398   20.00528307207862
C         0.73677803789300    3.81057371979771   14.71413390009369
H         0.73721895785202    3.44559738417414   13.68706893452065
H        -0.30488071662332    3.97241439394007   14.99186372936284
C         1.36147949068452    2.73624262719910   15.61103572158975
H         0.79885330629533    1.81048858632038   15.52539086151302
H         1.36584071893042    3.03448376284440   16.65695563818382
H         2.38961284882003    2.54276735454819   15.30761892360987
C         2.44324006073903    5.10165861177784   12.39870876408126
H         2.37897490798116    5.89978466639395   11.66084190764468
H         1.61997629957641    4.41895056864706   12.18550154176783
C         3.76588053209237    4.34562497943695   12.23696350848243
H         3.82675840946737    3.91930482295095   11.23926690511770
H         3.82821347368580    3.53790853147498   12.96383485709448
H         4.61852320445162    5.00658389782869   12.37427921289404
C         1.98372929717534    9.42898245233921   16.88431403866028
H         1.45814291386359    8.60809042632556   16.42409195244773
C         1.34368198625418   10.63137478938195   17.09874457714572
H         0.30884341869604   10.75781423036998   16.82217430788335
C         2.06009200833113   11.68028961948046   17.68026760926696
C         3.40326558740707   11.45788785610471   17.99384510531139
H         4.00349115894595   12.23957247588309   18.43203784234969
C         3.94604248468522   10.21551035253810   17.74254201235884
H         4.97688970618059   10.01614663236232   17.98599285041425
C         1.44532586873460   12.92680950578135   17.94152552737451
C         4.48289149909478    4.68845745969415   18.00349452704837
H         4.04884804903732    5.08998455608624   18.90474535738216
C         4.75447242528823    3.34009649722865   17.90516293960572
H         4.53557473434515    2.67549786026489   18.72594839182242
C         5.30635622565486    2.85068904215091   16.71864360537191
C         5.58722472179784    3.76760187155515   15.70273034107769
H         6.03578323778702    3.44400376119937   14.77662783867361
C         5.27802574347183    5.09615719423965   15.90416963822155
H         5.49517959040477    5.82594821899015   15.14130028458951
C         5.57333079430973    1.47228639751304   16.54974835070573

