115
CSD_code = NACXEW | q = 0 | S = 0 | Stoichiometry = C46H50FeN10O8 | MND = 6
Fe        0.38820435069666   16.07160671111588   10.08650434848180
O         4.73586233208293   18.65964202094629   11.74993083370213
O         5.75381777979078   17.10113768405290   10.67237026972471
O        -2.15342881608947   20.46095193898834    8.54593576136075
O        -0.68140959424488   21.46888642880237    9.74891719366987
O        -5.01344341197390   14.98772022876555   10.19634518178942
O        -4.04784907732654   13.45051427345862   11.35153116096327
O         3.04763531622984   11.70467028785010    8.63982004522510
O         1.47237449148680   10.68639792843864    9.69409729160660
N         2.11394365134267   15.20531485231562   10.28131543594472
N         1.25528059610782   17.81300902314677   10.02654069771067
N        -1.35128248567027   16.93167802200617   10.16283561192328
N        -0.46679030569863   14.34347759248138    9.87307243331586
N         0.48528792166599   16.13334763238007    8.10728547446963
N         0.29388066483007   16.02856699715785   12.06582360006056
N         4.74974885430560   17.66478608856380   11.05196976611540
N        -1.20436978340543   20.46874319133122    9.30367840499003
N        -4.02957863193354   14.43896793967372   10.64637303016654
N         2.03709723713845   11.69021545787387    9.31293679259829
C         2.32012038483099   13.86914487979906   10.32522044234155
C         3.48130177389649   13.56889324204589   11.13033476967627
C         4.00729451710888   14.77315111684092   11.51475935508745
C         3.19435062335576   15.78792640976148   10.87962076757740
C         3.47466338022482   17.13496295011655   10.65822465445761
C         2.59151894457995   18.01805650385518   10.01830358607164
C         2.91041299854532   19.21918126464134    9.27712370712519
C         1.71495984941801   19.76250294682132    8.89120877959246
C         0.68598602171274   18.92310809773452    9.47052673325500
C        -0.66661512897119   19.18640625164327    9.66837243091178
C        -1.56258637148265   18.26518094723090   10.23295971468637
C        -2.79080425500182   18.54108286136255   10.94048994752679
C        -3.34744439055634   17.32594958642765   11.23761452619217
C        -2.47995754621348   16.33105590574777   10.64463548352521
C        -2.73487579808985   14.99303497857223   10.35487243020613
C        -1.79843322398759   14.13386934856779    9.76099597655737
C        -2.05383253234775   12.94707013970111    8.97833947978073
C        -0.83054654831183   12.40982658516643    8.67956472885066
C         0.14770615500232   13.24388784680771    9.34433041862539
C         1.47743431493844   12.96989767849458    9.65566284513773
C         3.97684487353040   12.22195448764752   11.54368506802364
H         3.19503293232976   11.46976048152054   11.43619204366165
H         4.23613436138401   12.25793096109611   12.60541266870063
C         5.21288067694473   11.80055161736429   10.74413698634937
H         5.58340129671126   10.84497852439792   11.10656959852025
H         5.99991566390617   12.54419921015555   10.84029007505388
H         4.96261381582119   11.69933544324202    9.69080980051972
C         5.09801330763840   14.98102887556744   12.51122847272311
H         5.93539245540198   15.52291092519967   12.06838255253301
H         5.47574282536726   14.00825281974000   12.82633795454434
C         4.57927514360239   15.73150046856642   13.74179376776526
H         5.37191640651968   15.82529076710196   14.47973570166575
H         3.74913231489109   15.18777681853155   14.19109489413752
H         4.23026172164732   16.73006007345981   13.49122751639057
C         4.27409949982686   19.66873437503972    8.86816633060510
H         4.93461528232209   19.76228690611632    9.72948251105623
H         4.20196116185570   20.66162327979604    8.42310698638740
C         4.88475836336636   18.71028591776786    7.84068806613542
H         5.84857255135566   19.08835102112974    7.50966950730989
H         4.23005785856516   18.62143034090961    6.97558990417360
H         5.03766352388151   17.71922144217002    8.26135601017094
C         1.50864504679419   20.88990782910337    7.93628449447227
H         2.47653293565138   21.31639403330439    7.67252666760552
H         0.92048539648659   21.68799859895080    8.39124532137803
C         0.82652299532495   20.39714302393907    6.65596423222555
H         0.72265680681567   21.21851102880099    5.95164108870050
H        -0.16323034506216   19.99331935107811    6.85512396140898
H         1.42237729463876   19.61334486652114    6.19009776194527
C        -3.32155312528643   19.87544424327852   11.35119237811749
H        -2.53349577186027   20.62875509286237   11.33453912704478
H        -3.67130528967737   19.80715424652792   12.38501918210158
C        -4.48415914078133   20.32439431428853   10.46155645195045
H        -4.88356092006576   21.27008565719651   10.81920987313677
H        -5.27727199714777   19.58101972442954   10.46736443816109
H        -4.14450366182702   20.45572586505593    9.43698570377226
C        -4.52343105832086   17.08905120425423   12.12448640599273
H        -5.30950242310723   16.54649697862113   11.59690981580436
H        -4.94040018060947   18.05186015252437   12.41990063201074
C        -4.11109784717905   16.32217637998058   13.38502014949835
H        -4.96893436395344   16.19961124842074   14.04131090181542
H        -3.33831028886368   16.87061610703073   13.92222764267787
H        -3.72058445433920   15.33526032398783   13.14988617384932
C        -3.37603657952456   12.43638338127044    8.50723221493308
H        -3.28158305508331   12.14391722839193    7.45779759703346
H        -4.13286537354844   13.22004375069228    8.54837691665757
C        -3.84124660272575   11.22546775887939    9.32081406123585
H        -4.77613346614061   10.84316600768852    8.91881010423664
H        -3.99912770724054   11.50808663437363   10.35887912645454
H        -3.09433062953685   10.43628449372161    9.28982993972890
C        -0.56942662523502   11.28423979368484    7.73585545363145
H        -1.52389398157672   10.88820646737942    7.38896217462409
H        -0.04526998229097   10.46785652927500    8.23539572849433
C         0.23635122396635   11.76166714248042    6.52359983495407
H         0.37336101671958   10.94129008302588    5.82370800902489
H         1.21813123648713   12.13113182398253    6.80860569659272
H        -0.29198376763361   12.56715334834833    6.01515297512198
C        -0.61697743352360   16.19964120079148    7.36189911072235
H        -1.55303489326706   16.17080864875220    7.89710705401561
C        -0.59514062382490   16.30892511580952    5.98337421576621
H        -1.52197716721050   16.36462186380936    5.43528909846928
C         0.62725846532218   16.35102651833938    5.33137209901150
H         0.68195912250475   16.44087414954918    4.25749740354679
C         1.77690986655426   16.27220503046636    6.10163309731802
H         2.75522535908783   16.29143183420369    5.64827447863227
C         1.65790424919973   16.16343267155740    7.47504384286134
H         2.53439990674168   16.09344686945473    8.09936452838425
C         0.23845816199948   14.87598162382070   12.73197859517314
H         0.25097576723179   13.98034392091748   12.13109487462659
C         0.16146176005194   14.79932152659599   14.11066278105419
H         0.11647390448473   13.83562061250679   14.59217235209620
C         0.13881763587458   15.97210486939564   14.84899392638711
H         0.07758058794670   15.95025488498178   15.92602607473351
C         0.19733889051899   17.17379208781439   14.16076324837445
H         0.18675388689001   18.11714728970966   14.68284872641663
C         0.27444576359485   17.15314060121198   12.78014274466117
H         0.32822118068872   18.07202536975268   12.21794898391776

