81
CSD_code = NACYEV | q = 0 | S = 0 | Stoichiometry = C34H38BN6NbO | MND = 8
Nb        1.66614565904032    8.55018125635978    4.13265264168107
B         0.30819424946680    5.53412615347378    3.72298528307666
O         1.31285282994829   11.37866913876242    2.94487150313282
N         0.97035480545063    7.46177052245624    2.22216786835351
N         0.60396702479366    6.16965562706546    2.35278229316225
N        -0.45117871705335    7.79990650570227    4.48659892229281
N        -0.68403244812731    6.47759874461373    4.44687117380452
N         1.62201336435084    5.41439111251716    4.50574659426574
N         2.54299385402653    6.39771186441900    4.52983319293869
C         1.04522704028157    7.73244632592042    0.91975410361772
C         0.73210015366624    6.58090360085086    0.19329763802562
C         0.45739066391848    5.60893489673920    1.13732895689220
C        -1.52132942094796    8.40289543191857    4.99653866104068
C        -2.47804779497752    7.43273576708221    5.30518868946753
C        -1.91120728800351    6.22215084120837    4.93810957702098
C         2.09398250896038    4.32957615340891    5.15710419394660
C         3.36060633742223    4.63585915139407    5.60986889307529
C         3.60195689451064    5.95015211297696    5.19477839465230
C         1.40753556237194    9.06471450087595    0.36891798673186
C         2.26021319431365    8.83190899956883    6.18954465650541
C         1.79549073891796    9.96237498188970    5.75097746004394
C         2.07502900997933   10.45091380117064    3.17329998267683
C         3.63307025392648    8.90833903843671    3.02741673444516
C         3.43655993832162   10.21779020194159    2.71415803715113
C         0.07863581648927    4.19015023864344    0.90731004111990
C        -1.58823349159985    9.88136152301441    5.15332529369755
C        -2.50007629002862    4.86249884598714    5.04858028375341
C         1.33594640522359    3.06431075111858    5.34358078381663
C         4.84165460398310    6.73548175678938    5.43876846146161
C         2.65836999976782    8.14159850708853    7.38595236717771
C         3.77371881388257    8.54110575509022    8.12857741040760
C         4.15131336707393    7.83794931210790    9.25546840450455
C         3.42785725279704    6.72936953995280    9.66648612673709
C         2.31587053860668    6.32820709966029    8.94255533054495
C         1.93496142795648    7.02203345007059    7.81214748369510
C         1.50616895084701   11.32031461620260    6.28955481631603
C         4.27851010541688   11.18515202772797    1.93270610170592
C         4.78656703895073    8.14188634967295    2.57229833027670
C         6.09761822160321    8.58579407183975    2.76914466180133
C         7.17144794190515    7.82606565207953    2.34489982465969
C         6.96245786785356    6.61594608009863    1.70386615293194
C         5.66773999183385    6.16371084622239    1.49971564062567
C         4.59252312039860    6.91164643475148    1.93607160933996
H        -0.18969880287731    4.47386956465695    3.58468772042892
H         0.70839454458543    6.47412750501540   -0.87220382939680
H        -3.44810821670599    7.58856463823141    5.73198846441798
H         4.01921494581494    4.00517847208562    6.17142571111648
H         1.07518243030890    9.13543550383702   -0.66438585170857
H         0.94755944668948    9.86339300224391    0.94902554270467
H         2.48934485374322    9.20280776799546    0.39649070203297
H         0.10003619293536    3.98075193832639   -0.15882689901128
H        -0.92320963947794    3.98919613605033    1.28362590905650
H         0.77198496248692    3.52120022034645    1.41365791185358
H        -2.61056655352926   10.22641634566336    5.01112015498722
H        -1.26749653530428   10.16958287412487    6.15566120509566
H        -0.93763136706367   10.36994625549393    4.42397828991597
H        -3.47304532046814    4.92672701183362    5.52821645538335
H        -1.85774910713752    4.21054857429715    5.63767953756414
H        -2.62191170838020    4.41417825689055    4.06389951336317
H         1.93457493195848    2.37177160135331    5.92908726988748
H         0.39984744739328    3.24857594666312    5.86796301360172
H         1.10124174104196    2.60292010490827    4.38588941661454
H         5.19016177400054    6.55875804609781    6.45463114159551
H         4.65840496787203    7.79983885230746    5.29609323547377
H         5.62393509857875    6.41994244683238    4.74843057837037
H         4.34067807172593    9.40145862557810    7.80179604085884
H         5.01635275954300    8.15528134570757    9.82052650179554
H         3.72823435186550    6.18128477535008   10.54732689801048
H         1.74764436453674    5.46567713356359    9.26151756128824
H         1.06527191408910    6.70912980404456    7.24481708035391
H         0.98147569778885   11.93292013279559    5.55629833385144
H         2.44717158545250   11.81598276635356    6.53691963146901
H         0.90939964303027   11.25382997052956    7.20234229529915
H         3.63234321945302   11.82144531425172    1.32934425965342
H         4.83741059527478   11.83043238874387    2.61136180928167
H         4.98675944675242   10.66329533340600    1.29024729611571
H         6.26399397323299    9.52146424110805    3.28302906083451
H         8.17912283110650    8.18077788955132    2.51016038865577
H         7.80311171371081    6.02654532137336    1.36778766438668
H         5.50011969341747    5.21888279207459    1.00177084705581
H         3.58290395503714    6.55377151144913    1.78191657517224

