39
CSD_code = NACYAR | q = 0 | S = 0 | Stoichiometry = C12H17Cl2MoO6P | MND = 6
Mo        0.46296096179936   13.74464136647988   12.36687684065353
Cl       -1.73003578112061   13.24586779853988   12.15336891191421
Cl        2.36401168394516   14.23122934105335   13.74443544866792
O         1.14211226483496   12.59779221756971   11.41766193830335
O         0.48094994435557   15.18262097956081   11.58371523551581
O         0.23193321456904   12.40004236584111   14.08417983615452
P        -0.05049295048213   12.75906084060494   15.49655963673972
O         0.55194676259409   11.55468566566754   16.33922243954955
C         0.27884317856123   11.34502997036453   17.72326018311281
H        -0.68385080426560   11.79549937746934   17.98383061026784
H         0.20758800933733   10.26045753546316   17.84123971428896
C         1.39062583340161   11.89133161949392   18.60308445639824
H         1.24091837054287   11.55539889812224   19.62580861172138
H         1.40445130066053   12.97764845274191   18.58991420499357
H         2.34989835584315   11.52460744780840   18.24878862248915
O        -1.59130716870378   12.85702085648031   15.86591338285086
C        -2.50324709288227   11.90533143551603   15.26940645400954
H        -2.72000706858005   12.23120020342018   14.24710629643167
H        -2.02083196316403   10.92258836582376   15.23463129306658
C        -3.76187758494258   11.87361666932171   16.11402833579844
H        -4.47770834398754   11.19225349851372   15.66436770075555
H        -4.19969006686187   12.86662521495299   16.15839211645616
H        -3.54243703613850   11.54102519728453   17.12602408960477
C         0.58080289962364   14.35379041370856   16.16706394398502
H        -0.04452158706632   14.64185495157250   17.01561379267607
H         1.62667330040701   14.28507295955721   16.46311974548866
C         0.36386895623152   15.31984198928505   15.02562290890466
C         0.95582868643972   16.65248700690535   15.03725410530905
C         1.59065652636378   17.17932937741359   16.16685677842919
H         1.65228320315890   16.60406334428239   17.07730200765293
C         2.12839232192022   18.44986285074751   16.12354337365628
H         2.61405554340607   18.85718019281830   16.99751505542024
C         2.05384619182084   19.20247809827650   14.95984102960123
H         2.48601222027088   20.19156441552147   14.93210740153547
C         1.43290766136174   18.68455724398916   13.83319885713960
H         1.38410290669723   19.26593826986601   12.92568958804480
C         0.88099675035492   17.41985193064105   13.86758073212055
H         0.41747189134280   16.98957930833983   12.98911147710350
O        -0.44883149167182   14.95937232896273   14.16516284317687

