37
CSD_code = NADBID | q = 0 | S = 0 | Stoichiometry = C14H19ClN2Pt | MND = 4
Pt        7.65814539376493    3.96061219773580    2.63480658951731
Cl        9.11449873773832    5.81459539383659    2.46851636900396
N         8.31303821914461    2.91814339863804    0.94251037830650
N         6.63879124390709    4.54072888359647    4.36765852872811
C         5.45058378951124    2.47000229524215    3.71747085118881
C         5.36623503752178    3.76571308779560    4.49067030448034
H         5.13152071247555    3.60512230444651    5.55064873524412
H         4.55953735463257    4.36732842235022    4.05869781356835
C         7.55595330244108    4.15179432328788    5.44381034603336
H         7.71095441082253    3.07156920726506    5.42163419386698
H         7.14953087782692    4.43424946246719    6.42317494868552
H         8.51454107197385    4.65413290818967    5.30090161070087
C         3.91504388452601   -0.82300116698879    3.07128201546808
C         6.37203795248120    5.97608221066287    4.45122189600756
H         5.71948979089299    6.27819982646545    3.63143090892520
H         7.31223545716767    6.51930271418304    4.35454892285925
H         5.90008527580913    6.23628340540872    5.40619760405602
C         7.61735232469052    3.59396611345920   -0.15745476508960
H         6.53838255978597    3.49486717888260   -0.02553688796972
H         7.90046768447735    3.15790228876615   -1.12380441314744
H         7.88252417637924    4.65290288520048   -0.15646159664139
C         4.60287114845068    1.38302278818310    3.82492895141621
H         3.80125124103659    1.35955861206216    4.55020090353680
C         6.65814460903028    1.36105044758646    1.92160456724222
C         9.75652316499628    2.98499012578933    0.71863281959606
H        10.28106296148555    2.51651595235836    1.55200013017281
H        10.06154103073227    4.03044924770974    0.67022842478273
H        10.03603338985552    2.48265808889278   -0.21516206034357
C         5.80611148690936    0.27598465217620    2.01250408134444
H         5.91561777234738   -0.58556678614843    1.36835210164041
C         4.78332095985218    0.29060821249928    2.96829826658104
C         6.46795875834729    2.44384226519549    2.77142132547284
C         3.18304194503036   -1.77058421802178    3.15966261545728
H         2.54129525896354   -2.59679624415849    3.23558494847568
C         7.86292202897406    1.49465960392304    1.01920299049886
H         7.67275656943855    1.11145732118713    0.00851723048194
H         8.67779841657979    0.90415258987536    1.45119834985240

