80
CSD_code = NADFED | q = 0 | S = 0 | Stoichiometry = C39H36N2P2Pd | MND = 4
Pd        2.57509404860384    4.41683092665608   -0.22334894704715
P         4.62474631032685    3.36187633540534   -0.35551524810930
P         0.88472030872656    5.69239455005789   -1.17813676357803
N         3.77481939178230    4.68204194989317    2.32037834058269
N         0.34150169698050    4.22489467389466    1.42506880451178
C         2.68684745195997    4.46020415671724    3.24525976597708
C         1.89257123389307    3.16494630017377    2.92998745173593
C         0.41936556035002    3.44340878084036    2.62928049384673
C         5.54473794449380    3.41842623550464    1.21918619476985
C         6.81790760324856    2.86108377721542    1.29190085791998
C         7.49053645532841    2.77239025766478    2.49260836056308
C         6.87937569601988    3.24306858502950    3.64692780449849
C         5.63497599283994    3.82919674293676    3.59098756157234
C         4.94669204813617    3.96448268948728    2.37732873589134
C        -0.69749026785379    5.57203142475229   -0.27885509111652
C        -1.83555226407945    6.18804818671189   -0.78202179201416
C        -3.03499118430266    6.14524021712871   -0.09831660700128
C        -3.09762162536838    5.47148358709276    1.11224383939542
C        -1.98803748110638    4.83182559654471    1.62144724298694
C        -0.76411559597901    4.84937427528750    0.93755541224389
C         4.98153248660062    1.72172979033366   -1.04554703817887
C         5.25173016859282    0.60691775080456   -0.25985513675204
C         5.40859411214750   -0.63428585910807   -0.85103752865581
C         5.27974700066307   -0.77615462894397   -2.22257104515788
C         4.97480406694973    0.32595899728343   -3.00673876331838
C         4.81580492344366    1.56627407169035   -2.42101674043222
C         5.62546412139374    4.48765085681109   -1.39044737050116
C         6.81229528263799    4.12869774746185   -2.01824119869850
C         7.51567020292293    5.06793431872897   -2.75073510394203
C         7.04567779917519    6.36684908235530   -2.85884689802156
C         5.86329985366229    6.73088080384598   -2.23477526029752
C         5.15647008566526    5.79450892975297   -1.50476330011109
C         0.99822969066447    7.41224503548845   -1.74385303775329
C         0.37852275180314    8.47562603182368   -1.09863212960329
C         0.59438588632697    9.76984218320789   -1.53900462297794
C         1.43843738958895   10.01236179212780   -2.60974388001782
C         2.08430811969334    8.95694234383306   -3.23594811961907
C         1.87346109128595    7.66413681424096   -2.79974395504320
C         0.48104909869499    4.77975911246083   -2.71061529291238
C         0.90538566624851    3.45375298876980   -2.76362334804681
C         0.61362316764756    2.66704708271499   -3.86142936954971
C        -0.10309680098976    3.20271640746732   -4.91939013831013
C        -0.52051305985312    4.52321360335030   -4.87669805422033
C        -0.23269087163004    5.31215720087314   -3.77760842682054
H         3.40756512658109    4.81519614884598    1.34622352839992
H         1.09819988374371    4.02216314840468    0.73166701192213
H         3.07518358329658    4.42343067462282    4.26437325360359
H         2.01968393127916    5.32490315608827    3.16491470983503
H         2.33945694967849    2.67956568541285    2.04480293107016
H         1.96625750648473    2.45870590541798    3.75744063693832
H        -0.02426039208338    4.00196462829542    3.46185715303272
H        -0.12279671292313    2.48831579185655    2.52935631885255
H         7.27435912675598    2.47470561779460    0.39134477315634
H         8.47573210314296    2.33310298398613    2.53538330457810
H         7.38872828143436    3.16416255580332    4.59661086488358
H         5.19211958250023    4.22229161773717    4.49365988725197
H        -1.77328469290953    6.71754857213256   -1.72241069044405
H        -3.91016252415693    6.63244014226130   -0.50046843910821
H        -4.02803231582485    5.43507955862265    1.66078823579831
H        -2.06633492708299    4.29639955468707    2.55519941146827
H         5.34453756911379    0.71348550380251    0.81221197130060
H         5.62973933142647   -1.49570462561453   -0.23732545481850
H         5.40622300261070   -1.74657636558672   -2.67979815837088
H         4.85662044424665    0.21436144548933   -4.07500851494007
H         4.55995390725026    2.43068251136197   -3.02202082638455
H         7.17760313264708    3.11323234043906   -1.95069164809739
H         8.43571851137724    4.78486923181949   -3.24195284157555
H         7.59940568630637    7.09374514601704   -3.43513046571434
H         5.48971065185389    7.74104348038498   -2.32278847440285
H         4.21137886062192    6.07232149775014   -1.02158312370167
H        -0.27258435338249    8.28849421707661   -0.25621492184995
H         0.10322695346787   10.59372060902371   -1.04146306263878
H         1.60161487492329   11.02430449051261   -2.95066272956250
H         2.75565375801357    9.14589483323640   -4.06144684619827
H         2.38533871581108    6.83264354572915   -3.27021609592972
H         1.49289804892648    3.04259761088386   -1.93101525134928
H         0.95007248071737    1.64072674618858   -3.89697721805994
H        -0.33011693772209    2.59330685159991   -5.78204093072776
H        -1.07243431218679    4.94084892907426   -5.70667086246921
H        -0.54745040740072    6.34631453762552   -3.75784811824458

