88
CSD_code = NADGEF | q = 0 | S = 0 | Stoichiometry = C22H46B18IrP | MND = 10
Ir        4.61956391885199    3.76877545814367    4.46238104596365
H         5.20828268649634    4.16965870042531    3.13259176253677
C         2.60391904940456    4.31396129294621    3.52796820217489
C         2.16743861233354    3.43578191004959    4.55288661006060
C         2.51958241742396    3.99512513973310    5.79421574759779
C         3.14366993842036    5.24921465500569    5.55932571964213
C         3.18797735765096    5.47060934835043    4.16063837065855
C         2.21920973082728    4.19538977544517    2.08426296708688
H         2.28504364156983    3.16206848102060    1.74898082315293
H         2.86377101356448    4.80149807556402    1.45260072129393
H         1.18918092337795    4.53032312773349    1.94087856544408
C         1.41777768539809    2.16058258595633    4.34745623042941
H         0.34931550504223    2.35854769147921    4.22884191593910
H         1.54441186734642    1.49546470745701    5.19899010456242
H         1.76458569647474    1.64360342842301    3.45425285181755
C         2.16540316297517    3.41152262680598    7.12316934474293
H         1.08240807721268    3.30351416955979    7.21150823110435
H         2.50682934616044    4.04833039912648    7.93600200414994
H         2.61162768459859    2.42439369587168    7.25247945047983
C         3.53244065053518    6.24750499510079    6.60346637380644
H         4.27646886921511    6.94080157761082    6.21780768133751
H         3.94329160330040    5.76056054697756    7.48693846759706
H         2.66170512219279    6.82867183329626    6.91763060080893
C         3.49998632928307    6.77850783879282    3.49647611366580
H         2.66321216400903    7.47029904977818    3.61822096642015
H         3.67663720417575    6.64410093204942    2.43266633489772
H         4.38589480309741    7.23948378015244    3.92746887800718
P         8.77874168641235    1.22062160595429    2.66576716430209
H        10.09408855488286    1.08992546142597    3.10333288062672
C         8.43843472287961   -0.48806317478753    2.14476291272678
C         7.66961143556215   -0.75851746573397    1.01843267313570
H         7.33313265501351    0.05479964209034    0.39146832340465
C         7.34570978933812   -2.06414366767988    0.69577051795228
H         6.75328753076268   -2.26986702336321   -0.18309348995614
C         7.77752983614763   -3.10619400486406    1.49961163980942
H         7.52271537163668   -4.12426614401620    1.24708964990030
C         8.53364216501035   -2.84132493966527    2.63098967215367
H         8.86548827854430   -3.65314584261316    3.26049299638239
C         8.85913246070123   -1.53817543522462    2.95549387700358
H         9.43886812911968   -1.32443013412159    3.84194131706087
C         8.99193790961930    2.11923825644854    1.10334280991525
C         7.92630639158511    2.82163894323589    0.55073064833142
H         6.97030985140528    2.83912296224198    1.05297872518606
C         8.09050662889980    3.50745969113215   -0.63990927144617
H         7.26182812444538    4.05461929958768   -1.06238163353086
C         9.31651927191615    3.49899164474238   -1.28395336873262
H         9.44510341018970    4.03977551211688   -2.20919377894676
C        10.38093704421363    2.79965252596194   -0.73803094043486
H        11.33799051154467    2.79491771040788   -1.23749825234875
C        10.21930274678508    2.11096626989075    0.44979111984628
H        11.04916621316650    1.56891601044631    0.88092819687790
B         6.41549126791557    1.60067617995600    6.46972093679510
H         6.27148894506221    0.95941828418384    7.45096591832335
B         7.94853314754961    1.69212337080721    5.61289531948781
H         8.89766946393060    1.05013271704010    5.90934842641300
B         7.37229095382807    3.08325232919203    6.51482744228413
H         7.81190376371562    3.39999859174836    7.56809350619798
B         5.64442324276697    3.19475027037126    6.30013220937411
H         4.99810872620364    3.60038517092961    7.20279843417153
B         5.09272430713673    1.78979646691007    5.33030971893723
H         4.07112765520901    1.23695972443052    5.54268815214040
B         6.54194204874188    0.87502287559420    4.85338918155689
H         6.53943308403199   -0.29739918297352    4.69125999699095
B         8.18068683004888    3.33285455898067    4.92117212994418
B         6.70075016375305    4.29109431381496    5.39652272567005
B         5.64584318679267    1.92501392193767    3.71504101903582
H         5.18361932626025    1.42276293192800    2.75165876446729
H         6.75691592425664    2.59764680725931    3.27596152226361
B         7.59933766736452    1.95650310649827    3.92300565566448
B         9.40217780610091    4.35514691568665    4.14231866953661
H         9.90928038148492    3.95244198801073    3.14053668482957
B         7.69794940103597    4.84714584559787    4.01592757723175
H         7.26608087176729    4.82354525503588    2.91930769270253
B         8.88376212785540    6.06490297679539    4.33656778636421
H         9.01954376818973    6.92199817631744    3.53784432055996
B        10.32064382555714    5.53235859306755    5.20604219219701
H        11.35076311188725    5.98469667116255    4.85080938298320
B         7.35760703383907    6.08964998455375    5.24901571607908
H         6.61015880928404    6.97888343452788    5.02663288726289
H         6.78519687864158    5.37921827390525    6.14218227682420
B         8.94833108959926    6.45586331398464    6.05119167044413
H         9.14995682644737    7.55384432206985    6.43993081556892
H         8.86851460608489    5.68028636844298    7.11091017178891
B        10.01987624827412    5.13705189973709    6.84355036515976
H        10.76865894946772    5.33352824506348    7.73297551445192
H         9.66468740191124    3.91147776615939    6.86190923318561
B        10.07391333197961    3.82168778987185    5.61014981392508
H        10.90988204530008    2.98756621490317    5.61813569456250

