76
CSD_code = NADGIJ | q = 0 | S = 0 | Stoichiometry = C16H40B18IrP | MND = 11
Ir        1.94653883770406    8.03306757196715    2.88463345291352
H         2.72577134415242    6.39771477717275    4.30038038606148
C         3.74554917945075    8.70715123912995    1.37741030289796
C         2.81924580593332    9.72980276814125    1.80373406071322
C         3.07069405481437    9.99393229352679    3.20163225963428
C         3.98542293417978    9.02960029201382    3.63967056250293
C         4.42591577167594    8.25711340925596    2.50102986761390
C         3.89655929175503    8.26126285230822   -0.03945469887410
H         4.47562077123260    8.98909413497357   -0.61105003732139
H         2.92141828346196    8.16718597052801   -0.51248779831415
H         4.40345229394740    7.30172414803460   -0.10087060797520
C         2.12867061730449   10.65959149318075    0.85999176695051
H         1.41120167801169   11.28263879387489    1.38325296408852
H         1.60374715578203   10.10681674497558    0.08590809371732
H         2.86167237451618   11.30798759356399    0.37656812741262
C         2.55016550158758   11.17262045891335    3.96121503189855
H         3.06329876894030   12.07939533693423    3.63649805417390
H         2.71699522400198   11.05405229411259    5.02811514477174
H         1.48456784075420   11.30274371001474    3.79308965519630
C         4.56474626151619    8.89325800407233    5.01110805924260
H         4.75347608749066    7.84769073573056    5.24833005568413
H         3.89086003259934    9.30378146470254    5.75977999589956
H         5.51445859630744    9.42817832378315    5.08268651473604
C         5.50234345764099    7.22609470685613    2.57945252399782
H         5.72752913980548    6.81842306259583    1.59786115149911
H         5.21280604719832    6.40251774630813    3.23176996440871
H         6.41475552248347    7.66837804644253    2.98214201371397
B        -1.39320455082920    7.64646740182131    2.34817663306110
H        -2.33403310502235    7.95634428971514    1.70578650036329
B        -1.46675278235459    6.40197480879322    3.63587746185886
H        -2.43545092649025    5.77479765660949    3.90360769249953
B        -0.63213610024246    6.09203134558973    2.09538954550429
H        -1.08655146525694    5.34885665638469    1.28683996733214
B         0.21501709619489    7.60256580064485    1.62049343747611
H         0.36345157750737    7.90670691030450    0.48593259711149
B        -0.14270551014124    8.81554791132981    2.88247104830901
H        -0.21016162173416    9.95047868580838    2.57283721000195
B        -1.26653861668390    8.11354197839988    4.03204470685965
H        -2.07535544575887    8.74666973230616    4.61750944446603
B         0.19488529517028    5.59623641106454    3.68332199762973
B         1.06363871804143    6.22027685101361    2.25007051359799
H         1.53883617082835    5.50134046939573    1.25769914927681
B         0.44413483103480    8.28600368916819    4.45069495271317
H         0.88695955476433    9.06159627987276    5.22497145994321
B        -0.28917235089824    6.84591376753195    4.82190754678146
P        -0.57539149293920    6.37031274002513    6.60046265996388
H        -1.27173681018811    5.20881892077833    6.95409768657637
H        -1.31957134789258    7.26236506838363    7.38098630024326
C         0.88601081715902    6.17678074559648    7.67491726393126
C         2.03111645132869    6.91785606931944    7.40568003525926
H         2.03027779496034    7.58945091980794    6.56116124395040
C         3.15396853209562    6.78336840572703    8.20179973931302
H         4.04107905117397    7.36026175762553    7.98675945650588
C         3.14387951773873    5.90567508630994    9.27359688100506
H         4.02084501579088    5.79713068612662    9.89404140631510
C         2.00748891713259    5.16183285859097    9.54604983408625
H         1.99912799253821    4.47288541602966   10.37767711807353
C         0.88361548291375    5.29679700593559    8.75098020007396
H         0.00028322661194    4.70865499218426    8.95902530290648
B         1.24821932014698    4.42116169771843    4.46649200736951
H         1.32555264966398    4.41554704550174    5.65264041691283
B         2.08177596485647    5.72106981958583    3.57147127676274
B         2.67000050431966    4.09932464966918    3.40650512203351
H         3.75886995564577    3.84637606830096    3.78931397759158
B         1.42472796565241    2.85083800680576    3.60179575117920
H         1.71879787328869    1.88341626669320    4.21105785073248
B         2.51573101880229    5.05597862121879    1.94726961030814
H         3.48769020825343    5.40744254297629    1.37583277501772
B         2.06967375949216    3.29688564063120    1.94423523257284
H         2.74243329114830    2.53395721898909    1.34215521782400
H         0.90993377558987    3.36137702665595    1.29600597091026
B         0.32275364679321    2.76872007066736    2.28304953751107
H        -0.16069178061175    1.76300178852536    1.90168045616314
H        -0.59720613437943    3.62740799237920    2.51708542631926
B        -0.14690791064887    3.70855649482992    3.75718904038415
H        -1.02809089883474    3.32057975752098    4.44345647020510

