50
CSD_code = NADJAF | q = 0 | S = 0 | Stoichiometry = C24H20CrO5 | MND = 9
Cr       -4.12871452946799    3.05159480948027   16.97997785851198
O        -5.60131628261815    5.23862071874801   15.60132129723390
O        -1.88454028006505    4.95435705445397   16.52645021686695
O        -4.58542272893372    4.89725779829955   19.26778816978576
O        -6.75923090185525    0.02358796793500   19.21177519698712
O        -4.06392488380836    1.11560561274441   19.68629256354600
C        -5.04792512566468    4.35762337660690   16.10242860508066
C        -2.73139540512378    4.18290233975810   16.68068680104778
C        -4.40635330151322    4.16202941263800   18.39097847971597
C        -5.37727773283870    1.33419282457957   17.73847690488296
C        -5.48762123952831    1.35791495588129   16.34739376434526
C        -4.34213465652997    1.29257280369775   15.52981824899330
C        -3.08189769491758    1.22573504094376   16.11746266327924
C        -2.94691426780533    1.17420224644130   17.51994832713147
C        -4.08678729628802    1.22153211348678   18.33051376652690
C        -6.58423220714647    1.31887249287320   18.66722074842038
C        -7.83396821640203    1.76925437450794   17.95212130684580
C        -8.82928027548101    0.86991482682449   17.60199099170757
C        -9.95431505479067    1.31008708284597   16.92499315028318
C       -10.08512790507942    2.64588464489049   16.58753761881672
C        -9.09060191144676    3.54662568512932   16.93574837446666
C        -7.97012206455424    3.11298409335788   17.61931025967347
C        -2.91023459647610    1.59629029988006   20.38201444993631
C        -3.36614015432110    1.90231920680605   21.80791273602429
C        -1.78280235175394    0.59066571027754   20.39443039902902
C        -2.05330031712451   -0.76875494955375   20.47579178878039
C        -1.01829454939843   -1.68623609875792   20.50911416966376
C         0.29549200854034   -1.25153398094075   20.47066008384381
C         0.57143984305601    0.10371188326002   20.39482958470917
C        -0.46266301672312    1.02174855708420   20.35375944504530
H        -5.99962747855194   -0.15437218733017   19.77799060818834
H        -6.47136378190135    1.35603249744824   15.89369111284037
H        -4.45030158021309    1.24719065170499   14.45359005801478
H        -2.19594762972201    1.12030004761937   15.50267488610664
H        -1.97104969688835    1.01739876644778   17.96082890209333
H        -6.38233985367407    2.03230639344557   19.48547488472863
H        -8.71616250184705   -0.16863454951219   17.87061542272278
H       -10.72849615274400    0.60531333629626   16.65833612871751
H       -10.96122883130995    2.98669167517403   16.05593863318058
H        -9.18619364887944    4.58972229305507   16.67560317917877
H        -7.19346722059553    3.81497334792455   17.89194630614433
H        -2.57779393439253    2.52875059106669   19.89853790144256
H        -2.52907623357729    2.28426137933889   22.38496039343558
H        -3.73901315431905    0.99666260147180   22.28012814928434
H        -4.15731261733973    2.64712870042093   21.79039389862196
H        -3.07969134046634   -1.10538425364143   20.50461760642409
H        -1.23868106726194   -2.74173821314471   20.56790507618597
H         1.10326999956007   -1.96730066898283   20.49855464941496
H         1.59453815175861    0.44721667061383   20.36316817478486
H        -0.24875433157584    2.07911801640331   20.28629605730884

