129
CSD_code = NADKIN | q = 0 | S = 0 | Stoichiometry = C38H80N6Si4Zn | MND = 4
Zn        6.14749917150279    3.79078635661839    4.00366754267941
Si        7.34042062599655   -0.72539486630797    5.04412173918280
N         5.36912980945267    2.15483914846782    4.78358406122539
N         6.14749897920202    0.03553163382597    4.00366133936730
C         6.14749905079737    1.43778055688736    4.00366369076637
C         6.48435070628792   -2.05086688667969    6.11649339303184
H         6.14302805198174   -2.88613487824403    5.51418995583812
H         5.63002210671203   -1.65772322850115    6.65813442947803
H         7.18292024323672   -2.44437761409762    6.84794334073853
C         8.13798335826515    0.58990800673204    6.17049222671614
H         7.97764405627417    1.58714650189780    5.77200638614982
H         9.20871883185684    0.43290652071330    6.26377468283878
H         7.71933509436235    0.56266863851961    7.17205452525452
C         8.71831207014510   -1.59991953477973    4.04937103320754
H         8.31503472458090   -2.29550634399219    3.32173721362619
H         9.35324563430383   -2.16779439368534    4.72322382556178
H         9.35346456425146   -0.89859252037829    3.51835161356664
C         4.45290570256399    1.60043842249295    5.74506125182081
H         4.56007627356841    0.50785830193529    5.77500706450513
C         4.75895666857400    2.17782885708182    7.13153301601217
H         5.77340284878233    1.90037988487926    7.41997525907319
H         4.71862115773998    3.26768456242276    7.06085342055411
C         3.76016571278543    1.68166149084035    8.17138406581830
H         3.99520053883942    2.11523557029886    9.14622791047277
H         3.83947308774379    0.59514921464032    8.26149123810252
C         2.33712238321658    2.05171742520260    7.76646495778557
H         1.62692418545491    1.67778412155957    8.50782207678467
H         2.24386951575663    3.13920240891435    7.72917466673715
C         2.01458005883012    1.47029280451754    6.39394254757752
H         1.00184139261900    1.75315972134377    6.09694694116089
H         2.05346111611970    0.37906764412789    6.44868286205240
C         3.01499100849722    1.96448833366098    5.35425675510797
H         2.95557677589725    3.05238270657184    5.26574596887716
H         2.78930018085126    1.53767932362030    4.37533806552214
N         6.92586849047649    2.15484141675779    3.22374587461256
N         6.92587390117591    5.42673217317332    4.78358013298630
C         6.14749933178707    6.14379092610828    4.00366504166364
N         5.36912387172145    5.42673051606210    3.22375270889574
C         4.45290134079662    5.98112644451274    2.26227151506424
H         4.56007932425216    7.07370564357071    2.23231268448989
C         4.75894624748977    5.40371605778333    0.87580656989701
H         5.77339407867802    5.68115478928080    0.58735918901844
H         4.71860381645451    4.31386130058202    0.94650089539416
C         3.76015833247696    5.89987798503964   -0.16405024113769
H         3.99518821446686    5.46628633259748   -1.13888749697577
H         3.83947419779135    6.98638862382569   -0.25417434193272
C         2.33711300395631    5.52983872989885    0.24087805094944
H         1.62691703312197    5.90376833631325   -0.50048308219499
H         2.24385013939748    4.44235465725624    0.27818347431760
C         2.01457781449181    6.11128765767070    1.61339191409081
H         1.00183604023355    5.82843714452878    1.91039295382507
H         2.05347270754775    7.20251196479335    1.55863678561489
C         3.01498433923296    5.61709138614876    2.65308162311095
H         2.95556213875293    4.52919794523285    2.74160095675433
H         2.78929669943112    6.04391076895090    3.63199647954523
N         6.14750027369557    7.54603956949563    4.00366243799122
Si        4.95457275677907    8.30696898611757    5.04411275929676
C         5.81063808991396    9.63245672012170    6.11646885262157
H         6.15195344717668   10.46772043832942    5.51415605975279
H         6.66497255241693    9.23932518048408    6.65810869450506
H         5.11207288771825   10.02597194463574    6.84791976008091
C         4.15702459842517    6.99167081427461    6.17049679026223
H         4.31740344205471    5.99440355227177    5.77199684463183
H         3.08624753049273    7.14868676661653    6.26374598967247
H         4.57568860022723    7.01895532487915    7.17209580737840
C         3.57667380518959    9.18147734967483    4.04935878334542
H         3.97994325263659    9.87704858280090    3.32170772663160
H         2.94175137746151    9.74936820805937    4.72320582454123
H         2.94151120788895    8.48014527512711    3.51836159384730
Si        7.34042964244546    8.30696387059366    2.96321053973380
C         6.48436654481144    9.63244981530456    1.89085037496363
H         6.14305146779746   10.46771533243810    2.49316079108191
H         5.63003186900172    9.23931731741966    1.34921154660195
H         7.18293210390917   10.02596248300033    1.15939847534472
C         8.13797482422092    6.99166071580913    1.83683031562804
H         7.97758806393819    5.99439088235260    2.23533562734944
H         9.20875825299224    7.14867634584293    1.74358556522805
H         7.71930868707553    7.01894928011761    0.83522596863028
C         8.71833055701545    9.18147265212393    3.95796161614415
H         8.31506234294013    9.87704604409648    4.68561131313881
H         9.35325252441550    9.74936152491420    3.28411249914539
H         9.35349342902280    8.48014147958135    4.48895979563842
C         7.84209680907900    5.98113056385346    5.74505974926668
H         7.73492114624657    7.07371006095474    5.77501338968791
C         7.53604967388532    5.40372764491249    7.13152735965836
H         6.52160187410476    5.68116914126688    7.41997225181378
H         7.57639094156100    4.31387243977191    7.06083874774067
C         8.53483732099539    5.89989345518685    8.17138256161531
H         8.29980597492874    5.46630698806196    9.14622179583526
H         8.45552265409034    6.98640463302341    8.26150122801779
C         9.95788269716938    5.52985031571956    7.76645797496947
H        10.66807834955765    5.90378337326647    8.50781768873033
H        10.05114413967749    4.44236591901544    7.72915896657820
C        10.28041978433466    6.11129067826528    6.39394091998931
H        11.29316127792597    5.82843643073189    6.09694261505511
H        10.24152709143299    7.20251534415663    6.44868976225390
C         9.28001345514624    5.61709063769275    5.35425287576849
H         9.33943376495626    4.52919660117351    5.26573951632159
H         9.50570277258299    6.04390439138000    4.37533592293495
C         7.84209408490270    1.60044313733188    2.26226879041823
H         7.73492083156413    0.50786338197801    2.23231717643844
C         7.53604864241174    2.17784147842735    0.87579915731603
H         6.52160294780121    1.90039561301270    0.58735222550499
H         7.57638545102496    3.26769671234363    0.94648469488368
C         8.53484191557331    1.68167787316602   -0.16405148179083
H         8.29981093371268    2.11525756967596   -1.13889373718252
H         8.45553294730566    0.59516618993003   -0.25416458757593
C         9.95788457404374    2.05172892443160    0.24087445526132
H        10.66808443675573    1.67779882459295   -0.50048266494366
H        10.05113944609056    3.13921351777803    0.27817170124153
C        10.28042162381258    1.47029517775500    1.61339421317374
H        11.29316014183860    1.75315752379633    1.91039482255075
H        10.24153769032565    0.37907040804156    1.55864726298448
C         9.28000856715501    1.96448741292819    2.65307953062129
H         9.33942519530552    3.05238114893375    2.74159659794475
H         9.50569534501257    1.53767245561973    3.63199648616003
Si        4.95457629950466   -0.72539121809134    2.96319942998059
C         5.81064465826394   -2.05086365165885    1.89082678799624
H         6.15196644470560   -2.88613266196873    2.49312933028400
H         6.66497393064052   -1.65772030228112    1.34918647811124
H         5.11207517486143   -2.44437293276922    1.15937597565274
C         4.15701823524857    0.58991506583184    1.83682985036490
H         4.31736575203414    1.58715751771752    2.23532010510996
H         3.08627559869357    0.43291305600158    1.74355161596323
H         4.57567022188300    0.56266884275731    0.83526179818662
C         3.57668219269415   -1.59991498894604    3.95794745680357
H         3.97995747402637   -2.29550479880547    4.68557974168314
H         2.94174828960626   -2.16778684520467    3.28409238006343
H         2.94153034313270   -0.89858819878993    4.48896797224339

