114
CSD_code = NADNOX | q = 0 | S = 0 | Stoichiometry = C39H69N2Si3Y | MND = 4
Y         4.66904261010287    2.18646046846450   14.87132352494728
Si        1.69585271992528    2.40614371107521   12.84957639398424
Si        3.05136718052401    2.49764142430669   18.18434734611037
Si        5.04201303242451   -1.43711698735175   14.17858181222354
N         7.25480157756016    4.05938057978285   12.81456139832091
N         7.83305132710265    4.04130394889066   14.86906421729310
C         6.80461794349007    3.72563702062472   14.04738231442797
C         8.52573826246281    4.57435994767699   12.87103290916589
H         9.05029146213859    4.90956819491943   12.00020589400328
C         8.89413108019353    4.56155851470779   14.17181703423694
H         9.79699391900056    4.87595096594057   14.65325271263381
C         6.49974437575296    3.99549870780550   11.60795820224296
C         5.57039738840770    5.01185242269660   11.34701910728700
C         4.87369642214428    4.96485988707654   10.14801497384320
H         4.15252838251883    5.73061711113355    9.91527412785066
C         5.09038598436479    3.94437848437083    9.24141582539315
H         4.53639678674404    3.92343170142581    8.31476508624880
C         6.01736302856669    2.95797610226810    9.51070760842296
H         6.18265648710488    2.17550504962107    8.78810959576418
C         6.73929786418131    2.96272490475795   10.69759901587075
C         5.38244966391886    6.15576255254835   12.32134430495655
H         5.50155663962950    5.76031425023330   13.33619821235798
C         4.00147109233882    6.80607017694932   12.24339679676185
H         3.87497691656965    7.48396380358878   13.08485915149113
H         3.21613231463631    6.05687054063289   12.28848589483785
H         3.88853324020247    7.38637001941396   11.33075640053307
C         6.45874632359250    7.22055434272496   12.07325009467509
H         6.38884306618210    7.59269419620217   11.05296087930156
H         7.45869809318839    6.82076804967398   12.22343768482398
H         6.31978572889693    8.05681374994024   12.75491697159229
C         7.78666746931163    1.90286948227380   10.95645364416427
H         7.97319432828605    1.85419568491208   12.03447345467220
C         9.09236645729983    2.27596955137127   10.24402649366001
H         8.92229620979024    2.36443526502522    9.17306197323491
H         9.84067842771996    1.50470492489527   10.41219817694848
H         9.49037797716255    3.22103207363949   10.60356021727264
C         7.34501171669313    0.51304874894555   10.49326070289760
H         6.33159583251905    0.29911961482068   10.81913069935174
H         8.00471436001457   -0.24044029122900   10.91716950882408
H         7.38962578846547    0.42635986507449    9.41050272809596
C         7.81413648411164    3.93677051393768   16.28750383144668
C         7.29579670243638    5.00296309600217   17.03038674324420
C         7.30809573684477    4.90118536531160   18.41482232205760
H         6.89660117289927    5.69745941585030   19.01413881832773
C         7.83773283647089    3.78727147412869   19.03829846448604
H         7.84006279609813    3.72577612091231   20.11595371577832
C         8.35717199005840    2.75061991809367   18.28820265616953
H         8.76868919763073    1.88845731595444   18.78879753099448
C         8.34933246895099    2.80174341250242   16.90019151435272
C         6.70207225589908    6.21519761746459   16.35074503106087
H         7.01159100463391    6.22317317323888   15.30082171935347
C         7.18839667363479    7.52315298585764   16.97819337334630
H         6.79426040798314    7.65152700958407   17.98232561530986
H         6.85459484103303    8.36593998051283   16.37681261821463
H         8.27512596324147    7.54427005423188   17.02768931226923
C         5.17354237214554    6.12613447466609   16.39655022105907
H         4.82812977629463    6.10501487223900   17.42756622533750
H         4.82607937629155    5.21509647765416   15.90059070244646
H         4.73218072331551    6.98780405166030   15.90018265934558
C         8.92348111764896    1.66281938222671   16.09036041618029
H         8.74242995303331    1.85226639330330   15.02697009307473
C         8.23562974690427    0.34339700700083   16.44470012329564
H         8.43759171987219    0.05929561568044   17.47410235403720
H         8.59602361118622   -0.45066934689431   15.79469751290895
H         7.15744513902840    0.43797289521912   16.30897490804141
C        10.43666475833403    1.56879629416996   16.30652502674625
H        10.92474071619159    2.50029386411062   16.02592499011631
H        10.85187774319804    0.76662865697096   15.70089358781097
H        10.66539427178314    1.36525026977566   17.34962721675365
C         3.10048035822663    3.43879750218006   13.53717953927843
H         2.70751305295065    4.28411168192461   14.11659421387061
H         3.65615235422905    3.86545188905766   12.69443449272398
C         0.14548914701594    3.36956678140720   12.24943421932087
H        -0.26920409495897    3.97344111609312   13.05094026522452
H        -0.63886579391441    2.70308865237372   11.90343679135659
H         0.39185492055147    4.03900431918544   11.43067228066862
C         2.34601676156729    1.40801758005850   11.35023424739633
H         2.69350544845097    2.07247177970714   10.56480232965834
H         1.57784914786503    0.76934556145072   10.92633210431030
H         3.18001050692417    0.77572253575414   11.63829818441014
C         1.07845213615608    1.17873668009530   14.19060855764197
H         1.91349718037068    0.63450343730330   14.63730440613867
H         0.38760584027845    0.44783415490362   13.78058707112335
H         0.55828423009087    1.70099357420536   14.98860278408513
C         4.69623649776042    2.28780705043369   17.29927951117826
H         5.18125504012193    1.38501674802686   17.69537915838445
H         5.34615326786905    3.11876967615562   17.60219621618799
C         1.99128781345634    3.84380436826947   17.32178157410352
H         2.48210868964860    4.81224972208687   17.34332105384475
H         1.02849556563372    3.95849094348812   17.81093913548527
H         1.80355127112229    3.58902182996838   16.28131252551420
C         3.21179777803184    3.03608880488112   20.02308585461112
H         3.74723046376232    2.28960488790898   20.60170684745157
H         2.24422132467094    3.18356715708041   20.49321118558987
H         3.76288947641134    3.96813483957458   20.10771873382135
C         2.03466293560524    0.87577104038230   18.17849715980902
H         1.79936216331345    0.55885907942439   17.16693581794612
H         1.09523601783770    0.99822949399242   18.70890095494275
H         2.57801969699283    0.06879526509283   18.65981636565402
C         5.59301813382410    0.29248869363122   13.69591091239699
H         5.31440932392204    0.46481579808820   12.64861711030039
H         6.68920143518758    0.34896172678036   13.72873436093676
C         6.37332013894158   -2.79722986119014   13.90682350102067
H         6.66183620347770   -2.86380764514273   12.86218442653768
H         6.01624074436185   -3.77620863191999   14.21133077183182
H         7.27047710449271   -2.58523992121146   14.48089723445656
C         4.58647994984671   -1.50933296057461   16.04205710703010
H         5.46818123465777   -1.42212984988510   16.67103448209223
H         4.10600866856939   -2.45037983283030   16.29361096127824
H         3.90292546247716   -0.70662475038404   16.31728726460669
C         3.49941588488576   -1.97618418250058   13.18252287982546
H         2.70097106809065   -1.24667536927443   13.26820271230228
H         3.11441014249713   -2.92944442889136   13.53123390402532
H         3.73169426843027   -2.08382406038392   12.12750639534238

