94
CSD_code = NADNIS | q = 0 | S = 0 | Stoichiometry = C41H52Zr | MND = 12
Zr        8.90070619198764    1.88955498203286    3.58851017542776
C         7.73596363486243    0.54118709129917    5.57636210325139
C         7.97654155156215   -0.33837248182364    4.45433594377518
C         6.85908614638072   -0.96549820868170    3.86529220533953
H         6.98980138575532   -1.71543689773185    3.09417775753966
C         5.59868384852290   -0.67772713610651    4.32392527734365
H         4.76229188942331   -1.17680232925552    3.85736058577748
C         5.35247909538962    0.22102440460138    5.38439089611484
C         6.43329559976948    0.80297527360231    6.01602112297689
H         6.30128543710010    1.45347367719673    6.86773622675313
C         3.91200332942247    0.49269768901828    5.79035550049629
C         3.80542783781241    1.50761363735122    6.93206268638100
H         4.29113352028451    1.13735961024448    7.83187926452071
H         2.75697687442826    1.68270664908456    7.16539438923014
H         4.25122215710649    2.45920089032218    6.65114139142553
C         3.15214708376262    1.05846743992285    4.58159651032595
H         2.12482457205993    1.28860477772219    4.85681050214743
H         3.13188303901511    0.35023041914269    3.75804497731794
H         3.62978516509752    1.97197642098218    4.23341550168764
C         3.25519006993757   -0.81568108554118    6.25281044700635
H         3.80193155856272   -1.23132447527518    7.09668838127422
H         3.24317352134505   -1.55632726215151    5.45809674614941
H         2.22822918927284   -0.63210709998828    6.56228281599644
C         9.01688064522207    0.95344421825644    6.07555616305854
C        10.02347088634203    0.35330176425040    5.22753329108065
C        11.37656211711172    0.61108282306348    5.54007472636495
H        12.17247662112968    0.14161912470085    4.97553147830839
C        11.68445666021863    1.39704976257694    6.62252786843476
H        12.72812248082144    1.56802008689352    6.84192196007397
C        10.70718928581304    1.96318856583371    7.46960662194589
C         9.37761188466468    1.71967161182989    7.18989743413879
H         8.59193675944844    2.10441157779722    7.82245006654327
C        11.16437213196919    2.81038062721011    8.64763732641908
C         9.99269080286021    3.35385006196238    9.47009054616886
H         9.34710846791537    3.98312000559145    8.86170515537839
H        10.37469474031752    3.95836650940307   10.29046216763446
H         9.40464005276123    2.54390945979652    9.89532899090196
C        12.04417682117428    1.96059577691734    9.57546166334995
H        11.48805458715786    1.09499894068579    9.92926264992660
H        12.35746295149468    2.54647989434486   10.43728345466810
H        12.93468904533092    1.60635572674970    9.06390860499074
C        11.96885641038606    4.00827282240149    8.12133336369646
H        12.84040920170184    3.68583855244433    7.55818878679664
H        12.30888734273889    4.62588437513490    8.95014486512559
H        11.34798975653508    4.61986723458978    7.46949915722223
C         9.38097763507744   -0.45538892632692    4.24093432856678
C        10.01521142426395   -0.94556265373637    2.94941442848689
H         9.33163789253358   -1.65746234400647    2.46299883245646
C        11.33601126294355   -1.65372414900066    3.13850421226628
C        11.55210879331909   -2.44503717090773    4.26076734678821
H        10.77635975938391   -2.52737165456555    5.00870990640767
C        12.75064902678590   -3.11425113430177    4.42775880175231
H        12.90833475960801   -3.72142894805722    5.30731284051502
C        13.74664549062209   -3.00696916808841    3.47149498218153
H        14.68428926708556   -3.52680059120667    3.60352723463157
C        13.53280114334872   -2.23357183059106    2.34344864120510
H        14.30313025332555   -2.15122472092386    1.59012958645396
C        12.33366603592424   -1.56366092659782    2.17597583209732
H        12.16752876748144   -0.96328292214900    1.29285494216887
C        10.09971843582672    0.32639465274276    2.12085395838161
C        10.99909414624693    1.39244256086605    2.39845866627595
H        11.94727325495423    1.28995648461369    2.91192245682233
C        10.56388227683691    2.54279138623836    1.69326342183672
C         9.37426701691581    2.18915503094210    1.01491976960913
H         8.84237534417165    2.80168845069888    0.29930630984610
C         9.07099651653453    0.83396117284101    1.28874915425596
C         7.99635239160299    0.04961430737907    0.58119132128878
H         7.25891593933780    0.74398367800341    0.16831424985669
H         7.47259661600459   -0.62437552933694    1.26441238002916
C         8.60144851826177   -0.77265154511547   -0.56248917334590
H         9.10480125763891   -0.11674181130837   -1.26901454784085
H         7.82810921243517   -1.32563702893304   -1.09169565757123
H         9.33220844949819   -1.48035798698438   -0.17698211286918
C        11.34931179470386    3.82069955499224    1.48873772277183
C        12.24320569048573    4.10693579432614    2.70161492994273
H        11.65423454019001    4.11541301204015    3.61810851345602
H        12.72953532515148    5.07405030355385    2.58873466732428
H        13.02117665252548    3.35276970872781    2.79412637741237
C        12.23743592679420    3.65375811261519    0.24450004030793
H        12.92938473565155    2.82631141145663    0.38267942746401
H        12.81099370624224    4.55991277894162    0.06099417883868
H        11.62779619507018    3.44414457123101   -0.63105945401183
C        10.39061027353082    4.99827798276222    1.26746819998479
H         9.88910819653381    4.91030835190200    0.30696334476022
H        10.93844349307536    5.93844329393979    1.27375718519726
H         9.63161633244129    5.02439232413617    2.05104996115907
C         6.85259027237516    2.52123585529815    3.02311271822463
H         6.26574922609343    2.86015127336992    3.89047696099778
H         6.29980255717442    1.67930519342305    2.57709914030483
H         6.83270747047014    3.34401930149065    2.29131232275991
C         9.22208308041889    3.76155461680204    4.73575511540882
H         9.20240296857674    4.70557145168939    4.17263873405458
H        10.18235360101961    3.72932211760862    5.27635977034455
H         8.44036472115223    3.86243079943242    5.50633028185188

