47
CSD_code = NADPUD | q = 1 | S = 0 | Stoichiometry = C22H17N4O3Ru(1+) | MND = 6
Ru        3.78112350548589    3.02877083731936   -1.66378639018506
O         2.51172931862847    0.49655665422917   -1.29058015580017
O         2.70009654163614    1.64531047201827    0.60362143718263
O         1.56864880668293    4.81643217721860   -0.71516067261013
N         4.94389453269314    3.18792788207552   -0.04637611218033
N         5.19211965505871    1.63993453583684   -2.10505829464875
N         4.82387875337061    4.46387585868703   -2.88262730740755
N         2.77639481580657    2.88612840808593   -3.47324640512139
C         2.85075693063010    1.51263328805380   -0.72630662236675
C         2.43885751656341    4.17146206079749   -1.08105101897505
C         6.02243526862234    2.37015587866903   -0.01286646449935
C         6.92966792599503    2.40035554187793    1.04505613992795
C         6.72712369214948    3.27564784229452    2.09580357824476
C         5.61343989082569    4.10423369295881    2.05735577532742
C         4.75642034350716    4.02682881300274    0.97566113629630
C         6.13321158293686    1.45856185943113   -1.15458201642223
C         7.09476501049029    0.45542457529208   -1.26651926758588
C         7.07998321049073   -0.38116808710882   -2.36779605522861
C         6.10017030048610   -0.19366440307216   -3.33172286813238
C         5.18073506109974    0.82521622081435   -3.15671134532113
C         4.33638739078406    4.58560855364057   -4.13010226916541
C         4.92914941099896    5.45237579099194   -5.04970972898984
C         6.02889765099262    6.20066617204031   -4.67067274312511
C         6.51757456778409    6.06546152739090   -3.37912536061800
C         5.88086866588757    5.18392081181547   -2.52361278803944
C         3.16961835800210    3.74563797993303   -4.44003936750404
C         2.49555766077409    3.81525704438135   -5.65912449535440
C         1.41422828032655    2.98572296612456   -5.89658960673016
C         1.04072677907086    2.08867624495166   -4.90771262352968
C         1.74686481085107    2.07662567905085   -3.71672865627748
H         2.26426213880342    0.85806756302970    0.98498949338376
H         7.78477863997546    1.74513062841511    1.04708003780457
H         7.41566428773746    3.30758622522770    2.92465688867382
H         5.40821822560444    4.79760548392945    2.85625044730023
H         3.87801240803081    4.65711003975227    0.92856859018770
H         7.83479343210157    0.31822998016289   -0.49602789409763
H         7.80978039838173   -1.16893552561939   -2.46652328459967
H         6.04242237156534   -0.82907877526503   -4.20007951435024
H         4.40017779920514    0.98555877907554   -3.89025925326030
H         4.54260598689685    5.54436939347556   -6.05056650253082
H         6.49505019615839    6.87762369989914   -5.36900721264729
H         7.37025268560724    6.63116746198612   -3.04130394239182
H         6.23016506954789    5.05742545774197   -1.50543309129324
H         2.80463046073125    4.51635788115674   -6.41595159856884
H         0.88089224331003    3.03706347135108   -6.83256679977775
H         0.21415067781990    1.41199537292128   -5.04845398216658
H         1.49211673988780    1.37364598395823   -2.93336181282546

