105
CSD_code = NADPAL | q = 0 | S = 0 | Stoichiometry = C37H61N2O2Si2Y | MND = 6
Y         0.54259684600619    6.25579635409085    4.55336744449953
Si        1.09348305505355    4.07941316248741    7.48703022224046
Si        1.24723509828831    3.50750910535958    2.08992337922574
O         0.03539467531813    7.75529347876959    2.21245995587245
O        -2.10568658992343    5.67035819376656    3.60230200056919
N         0.40329799749168    9.61398584108381    5.48349897195953
N        -1.24123737657544    8.81862083658018    6.58793367424639
C        -0.43722126578629    8.55130584513718    5.52761774633984
C         0.13605224726790   10.50919362840102    6.48498499521420
H         0.70675887916536   11.40416828350537    6.62195997639821
C        -0.90593676676843   10.00925395015305    7.18640588173607
H        -1.43821366417697   10.39497761524344    8.03142115129685
C         1.43681979730628    9.79486333013987    4.52083783478795
C         2.45775348173906    8.80961642872899    4.44779662312170
C         3.43554350249237    9.00034918187450    3.44745943464561
H         4.22339386845994    8.26359355564675    3.36328166541183
C         3.42681117333176   10.08802565582384    2.60285253004582
C         2.41713607155026   11.04187110202761    2.72634364304151
H         2.41418501628625   11.90688778817660    2.07840825475351
C         1.41469563880271   10.89919932729848    3.67922656404159
C         4.48562274966751   10.26334795605942    1.55334259080665
H         5.21728526245237    9.46092818020059    1.60226161185000
H         5.00167678286597   11.21328317317918    1.68821664703756
H         4.03993493637305   10.26526990243677    0.55824449097823
C         0.34312878847326   11.95368816578825    3.76459791652410
H        -0.58821286854590   11.56263575478522    4.17130907827030
H         0.14422959389388   12.36582492144287    2.77666284770775
H         0.67027081573431   12.77613916122841    4.40235524387897
C         2.48481760890034    7.68276967750704    5.33102630751013
H         2.17424794188060    7.91692768201390    6.35323944804150
H         3.43951736537626    7.15622884485634    5.32436179035501
C        -2.31882370893076    8.02602907151211    7.05667391268636
C        -3.49799985240106    7.96211524693283    6.31471120171116
C        -4.56537547634289    7.23633313018359    6.82299512799481
H        -5.48880614803731    7.19315961120077    6.26263227458846
C        -4.47694932650978    6.57115940318891    8.03707558783883
C        -3.29092794600626    6.64889472118078    8.75339598775999
H        -3.20860312728863    6.13206614382689    9.69835299198122
C        -2.20593755349788    7.37540750781561    8.28697321092918
C        -5.62621360662794    5.76561894129018    8.56019612714915
H        -5.43729165042249    4.70412537352153    8.39960161522414
H        -6.55108947050885    6.02845299539107    8.05299394527325
H        -5.75245662962332    5.92314894366421    9.62915506392213
C        -0.94252301465592    7.46051509945176    9.08623863019714
H        -0.07156366093545    7.38512431087098    8.43770094743818
H        -0.90305263310587    6.65502793178493    9.81430650769158
H        -0.89030185343254    8.40793808147211    9.62378920997370
C        -3.59276458259843    8.65373733317125    4.98953171315770
H        -4.61680562188367    8.65199585069153    4.62422938020325
H        -2.95292410613407    8.13901146293349    4.27333731843318
H        -3.25052077434745    9.68524557534497    5.06257155017409
C        -0.21409139817932    4.86837234725328    6.39352665448708
H        -0.92620832967416    5.42536064843187    7.01410071465572
H        -0.79221395020273    4.04820399020470    5.94976509824482
C         2.40269983101695    3.18005811642401    6.41821313199566
H         1.93722956628021    2.63750966931322    5.60170499102132
H         2.97899136279511    2.46853387827982    7.00234538963098
H         3.09988518357385    3.89134234077524    5.98435645728247
C         2.05191348629881    5.34528943470791    8.56606557228369
H         2.32027951708362    6.22761908868640    7.99329358166436
H         2.97334873247240    4.90848680240768    8.93876215062553
H         1.47588666270383    5.66528858251941    9.42789688088181
C         0.41234464844674    2.77650596599018    8.73078604343003
H        -0.35542723243021    3.20478339375669    9.36873727979281
H         1.19089003366087    2.38150207913308    9.37663538711734
H        -0.03414249144134    1.93750033040265    8.20583522157740
C         1.92842638898281    4.95170953467336    3.06981613258761
H         2.43123922925599    5.63967053171439    2.37811123480688
H         2.72437979082798    4.55878552313923    3.71619131491375
C         0.47956286275420    4.07384179134317    0.42001907859383
H        -0.17478856412298    4.92941869702878    0.54751218622758
H        -0.10135549550775    3.28224886867515   -0.04370448321310
H         1.25919201717458    4.35561872821760   -0.28109034148389
C         2.53346678540248    2.16744033361767    1.59354683334884
H         3.31286221449803    2.58383527530901    0.96238297900968
H         2.08046237917462    1.34113905471033    1.05306281617168
H         3.01599885956809    1.75584653570914    2.47482882919111
C        -0.10432140316309    2.55260836402626    3.06475254385828
H         0.34928381980258    1.89208580976779    3.79691407968246
H        -0.72245590939683    1.93860254823572    2.41508653010203
H        -0.75223560374109    3.23536739016030    3.60702992547710
C         1.03344152849593    7.86585828994521    1.18348921995369
H         1.03249407981315    6.92845174045906    0.61744497932603
H         2.01124980813031    8.00479310542483    1.65202365984314
C         0.64769905801785    9.05673124669506    0.30465853425429
H         0.90348518638179    8.89467353050003   -0.73971781569671
H         1.14767803783591    9.95746166761894    0.66138811206215
C        -0.85473508285274    9.16404251315924    0.54587424748971
H        -1.39415876061410    8.43768310091127   -0.06461487452807
H        -1.25148155533576   10.15732259337510    0.35042975629904
C        -0.93008229829344    8.78633453112995    2.02082817980217
H        -0.67284619201620    9.64883431171114    2.64572347773261
H        -1.90510291458734    8.40090184151327    2.32433339195006
C        -3.13086679170652    5.03264350077010    4.35433945309947
H        -3.12973374944139    5.46149349097650    5.35606015941457
H        -2.92230533436900    3.95642418846055    4.42247939727965
C        -4.44451284662014    5.26743890924481    3.58516040653790
H        -5.04265706799367    6.04034570731253    4.06182122704806
H        -5.03576238052844    4.35505047943918    3.54384697763249
C        -3.97448413005423    5.70767172016570    2.18991948108727
H        -4.17393231798667    6.76775493639384    2.03296414215354
H        -4.44947092264339    5.14560490515324    1.38965043920613
C        -2.46444904164922    5.45099725954222    2.24595664587734
H        -2.24195287113633    4.41338660115258    1.96514361708468
H        -1.87376635413716    6.12459135550979    1.62862074418260

