70
CSD_code = NADPAM | q = 1 | S = 0 | Stoichiometry = C35H33SiZr(1+) | MND = 11
Zr        0.62642765802778    9.64800001487915    3.69229228285666
Si        2.86637374565522   11.26610455453733    5.70356796782144
C         4.53050739962105   10.48997711867203    6.20819971129303
H         5.30577373321922   11.24684685607609    6.14828356212774
H         4.85049442696817    9.65231593073148    5.60118814974927
H         4.48701787471511   10.15928878418487    7.24082438172064
C         2.57996178785903   11.37206673908708    3.81650118183977
C         1.48507454683079   12.14362997037733    3.29319816060732
C         0.97701448432078   11.46898707323914    2.13465240053143
C         1.84466762262224   10.36565199922621    1.84268967214972
H         1.90545215955423    9.83829942695446    0.89705691681884
C         2.81857392443850   10.32518114374662    2.88528049777034
C         3.94170432158574    9.32787478209815    2.92438968250747
H         3.77115048951550    8.56011489905253    3.68797298558122
H         4.88460012583812    9.82723827739467    3.14298546940280
H         4.03646334447204    8.83294474197476    1.95783517863555
C         0.91027990305469   13.38186939739986    3.64664307780825
H         1.38046704514127   14.00347974572728    4.39318505072663
C        -0.22702868884690   13.80548108490344    2.99917115325765
H        -0.65320169473682   14.76853685834098    3.23057553099307
C        -0.92510894715475   12.94040298492979    2.13359933704851
H        -1.92780791231092   13.19146878317487    1.82204348330123
C        -0.34760645715509   11.76502343974703    1.71220519030029
C        -1.09834866858777   10.56199830161269    1.26776024615485
C        -1.12285448636500   10.01624579616977   -0.00645485061486
H        -0.66445021672289   10.54881992154591   -0.82604237805109
C        -1.75456973425330    8.79916924073270   -0.22212046658065
H        -1.78466537971637    8.38576336435665   -1.21817838496919
C        -2.34672657461676    8.11227513629255    0.82649628043025
H        -2.83411830657017    7.16762693779689    0.64443112082091
C        -2.33704332694687    8.64716977240152    2.10707044668169
H        -2.83980205408954    8.13138866046299    2.91668051501706
C        -1.70153001957094    9.86492022962961    2.33569721017176
H        -1.82420174471680   10.38369415156233    3.30130506006711
C         2.76790774586768   12.92559979169424    6.63181215332696
H         3.04672778892631   12.77191742587362    7.66930376617018
H         1.79302936040098   13.39617824479872    6.62615971916832
H         3.47991880510319   13.62741739172475    6.20980122666571
C         1.32773092655445   10.14613516530414    5.95257218719419
C         1.32020063570920    8.70851660176723    5.81270277860246
C        -0.05214963400712    8.26659906752784    5.65201490455169
C        -0.87251946368403    9.44021999087341    5.64190699012951
H        -1.95569216757465    9.44850159325817    5.70613039880679
C        -0.03940240354320   10.56085570386636    5.87559133542883
C        -0.59692237145480   11.92154045514247    6.18448475346099
H        -1.68327942448940   11.91670907614738    6.08569761653886
H        -0.19601037254666   12.70292348444619    5.53919461451470
H        -0.36058982819466   12.18382530298878    7.21617131626650
C         2.34493074816846    7.74133546063057    5.86309230249629
H         3.36605384912642    8.03319921791599    6.06046902076193
C         2.01236416670054    6.40995738353926    5.76425687434659
H         2.78697671220689    5.66130195767217    5.83066145632631
C         0.68402491865250    5.98819033256542    5.60971510066952
H         0.47186929520089    4.93101789274060    5.56664541773152
C        -0.36276304464359    6.88755448295057    5.56252882320966
C        -1.76021406429307    6.43866058313762    5.42400918499540
C        -2.74811370479856    6.90662924938202    6.28804540221682
H        -2.47607375369620    7.56802175548398    7.09749881057814
C        -4.05889361908882    6.48907518806447    6.14601991346704
H        -4.81320260827420    6.84968417702205    6.82889749350111
C        -4.40300984007316    5.60384745843106    5.13750529366254
H        -5.42654974752679    5.28110292633669    5.02667761701900
C        -3.42559338981908    5.12245695846256    4.28218340340051
H        -3.68615527242425    4.42095172831772    3.50412974761716
C        -2.11213020599662    5.53145504374802    4.42662200906973
H        -1.35188143742872    5.14761755837444    3.76109308706501
C         0.70863819353234    7.70105658252685    2.65929352975599
H         0.68594426214768    7.77462132084266    1.56121479544868
H        -0.13075675787740    7.04865463468090    2.93444358127366
H         1.63084532190943    7.15441269272583    2.91926755035527

