31
CSD_code = NADQUG | q = 0 | S = 0 | Stoichiometry = C16H10O4Os | MND = 6
Os        7.40247709910030    5.64003102477254    2.51188726019546
O         5.65404949879979    6.04311464796937    4.97818653727433
O         8.03229398554833    2.64052527991971    2.80935199983142
O         8.04025802107459    5.81981344666570   -0.46534869885955
O         9.93740606419756    6.94764750558559    3.67160776000984
C         5.46182770808843    4.95076610997520    1.74569890847944
C         4.83304849289017    5.53288296329518    0.63959458926552
H         5.29651169237967    6.36166002833903    0.11842346658633
C         3.60334417438131    5.09198149724283    0.17701857317919
H         3.15907252272917    5.57057417488591   -0.68404581911608
C         2.94778300192633    4.05155574112970    0.80829566056482
H         1.98822745683466    3.70871891951076    0.45025818353476
C         3.53967097468127    3.45884046197264    1.90751320141193
H         3.04343795631612    2.64717556489090    2.42049444526773
C         4.77249283903029    3.89961508325194    2.36235565413375
H         5.19167830829262    3.39969662239774    3.22986993073931
C         6.78487336204060    7.70865491745844    2.10223127228835
C         5.48423227004523    8.17129286392790    2.33016564209907
H         4.72478712586507    7.50413783006767    2.71931530973950
C         5.11111378498610    9.47820995717235    2.05949144533993
H         4.09529074650261    9.79020089389844    2.25601791924175
C         6.02558330013255   10.37670460337382    1.54254251902538
H         5.73532585221227   11.39495242169352    1.32948026296232
C         7.31721809527000    9.94923114241442    1.30000857248561
H         8.04813519500542   10.63217636222360    0.89067505322894
C         7.68666457058031    8.64259658450139    1.57788477288248
H         8.71322531789856    8.35935490119280    1.36771366964345
C         6.38345891893596    5.85449701793265    4.11977632851790
C         7.83075112242404    3.76077637924569    2.73559030265347
C         7.89285679391146    5.70271411478165    0.66116427650240
C         9.02680374792099    6.41920093830993    3.23288100089073

