61
CSD_code = NADQOB | q = 0 | S = 0 | Stoichiometry = C13H36B9N2Ta | MND = 9
Ta       10.50947838232877    3.49070545225874    2.82717170329120
N         8.03634806355305    3.93990546103297    1.64405437951449
N        12.35467533776154    2.80974753554946    2.65459507964489
C         7.76783693488795    3.29903456342397    4.53603132311734
C         8.21966952663637    4.75345253952334    4.69484748890522
H         7.75102390340120    5.47600857414487    4.03312719887533
C         6.67527243495898    2.97038519133045    3.52110311631242
H         6.72834132483455    1.90109167008264    3.29804219909568
H         5.68304448608980    3.13767351878469    3.95271011978972
C         6.70601332846733    3.76807812938486    2.21146895115437
H         6.03576824256111    3.27124156847382    1.48512253651226
H         6.30032251068649    4.77102811720830    2.38626772084671
C         7.97509580654040    4.72339645853660    0.42420607774735
H         7.36356967187967    4.23414747978615   -0.35010078558813
H         8.98052724854160    4.87572928641325    0.03357443560080
H         7.53703134894724    5.69966058628856    0.63720483654370
C         8.82860936198474    2.72673804229563    1.52458791126842
H         9.08700260305527    2.54727379795778    0.46806706107675
H         8.26275553414367    1.85053831456615    1.85544197857640
C        10.94064979681010    5.61730398328427    2.04758780497780
H        11.25012557696375    5.58745856558380    0.99958892845171
H        11.73985451497877    6.10073943905482    2.60714733351863
H        10.06393724705709    6.25987364636422    2.11290649440353
C        13.49285649823601    3.49556594482381    3.24142686304833
H        13.06783819664338    4.31274992987986    3.83800348129192
C        14.40770548916962    4.11971980113251    2.17702007032436
H        13.82205343767786    4.74309956180621    1.50568805334956
H        14.91305352958829    3.35221781833501    1.59530469430767
H        15.16220236097409    4.73685499472103    2.65775253574333
C        14.31051262049147    2.61907264948561    4.20192916027686
H        13.64778896494940    2.12038244521973    4.90432512528030
H        14.99968045852932    3.24555823081575    4.76159716370889
H        14.89033470881749    1.86707804802867    3.67216319339768
C        12.67723391752373    1.62492828660032    1.87627904439787
H        13.73929404169630    1.38123827395331    1.99292431104949
C        11.86813310134347    0.41985943233971    2.37707649322325
H        11.97792748267161    0.32321161869526    3.45532802413794
H        12.22667199656574   -0.49257622481349    1.90505581133336
H        10.81002369863691    0.53852524839150    2.14298857523158
C        12.42210336564753    1.84926548429905    0.37666314382505
H        12.95687374472926    2.73081736183031    0.03145529463936
H        11.35947053840942    1.98747143133197    0.18384821678485
H        12.76867441865625    0.98810558777081   -0.19075529176930
B         9.78435112273857    4.90083217529139    5.09111803159824
H        10.39825119884365    5.86418887846735    4.78219922275201
B        10.40372701587275    3.18773865265645    5.24391045031473
H        11.53096358698331    2.82984559637618    5.35783452735389
B         8.96200736803575    2.23570828841322    4.83352845634794
H         8.96104006214233    1.18798346211357    4.26643263230767
B         7.18889018410484    4.16003777369931    5.94567716431307
H         6.06240063798329    4.50452623464024    5.95323161282639
B         8.52884677732264    5.18484823479012    6.34218058295999
H         8.35548234923666    6.29553671650596    6.69040310943086
B         9.93655350012110    4.16308086014996    6.67356559094221
H        10.78646952195332    4.47110394235973    7.43118604817137
B         9.37269143438655    2.43792630505363    6.52542313576741
H         9.85584949924960    1.57723236188057    7.17098332312505
B         7.68398104301979    2.48751882384248    6.07098087617036
H         6.87135342511054    1.64846835126565    6.22588588007417
B         8.30987870290610    3.67795742942683    7.23350036432833
H         8.00557681201072    3.66540806702355    8.37083113402104

