67
CSD_code = NADQER | q = 0 | S = 0 | Stoichiometry = C14H40B9N2SiTa | MND = 9
Ta        6.73551642721061    7.75791514729759   18.67396118115132
Si        7.73833450570216   10.51106355823150   21.87067314564287
C         5.82613646573708    7.47799186494615   15.86334745030921
C         5.04473918962489    8.73732261603352   16.30066568621571
H         4.03233066138641    8.55414281008019   16.65779310181806
C         5.05229665055859    6.15597824554534   15.94811790676342
H         4.19808420496232    6.25984197141535   16.62734480732698
H         4.63611138856218    5.90087168961144   14.96749192178939
C         5.89099414353938    4.95432770220140   16.38987080604819
H         6.79302690272881    4.92337635008443   15.77644026633446
H         5.32979058061756    4.02520183056518   16.20091944585315
C         7.50104586410458    4.24410459349091   18.02777885047552
H         7.36926074729244    3.19258392758201   17.73715066555346
H         7.76336966213379    4.28466543937259   19.08347569864276
H         8.31934223153991    4.66856943887349   17.44866840172511
C         5.22745456829292    4.48568477497203   18.65700697734166
H         5.07461324485202    3.41101531781359   18.48173330441852
H         4.28937682122436    4.99920521801138   18.46149687946722
H         5.49292725876547    4.63777609057264   19.70313590283893
C         4.55805814218484    7.83445018552458   19.44168842212890
H         4.43962856697446    7.41670888606058   20.44659953135086
H         3.87875378003254    7.27082533841848   18.79931806010111
H         4.16689661975581    8.85145491167068   19.47819934772932
C         8.44377039933511    7.17656530732248   19.94793524605706
C         9.85078310233749    7.00221460083248   19.39106375043627
H        10.60983691429282    7.30573895896013   20.11668455326161
H         9.97312481503208    7.60278599259013   18.48987030415343
H        10.03239171372448    5.95622362284428   19.14590924507324
C         8.25140190183522    6.41789076860157   21.25934929617913
H         8.94691203592498    6.78032579986585   22.01982375504517
H         8.43699212391815    5.35282735964767   21.12296253179918
H         7.23392215794025    6.55858555433497   21.62923120216997
C         8.67380910420808    9.64012298518938   20.43313096512357
H         8.76680071197839   10.35172965449981   19.60318273799646
H         9.68602756395122    9.35911475183665   20.73532271990314
C         5.89179712933594   10.55701820139624   21.41407172454653
H         5.33237315034670   11.24812062557657   22.03683952904184
H         5.44616452319842    9.57285073515754   21.52479985861376
H         5.76361437397114   10.85998326836930   20.37836493431469
C         8.43722513630501   12.27777671778958   22.05715610249180
H         7.95515965756822   12.79897951599597   22.87751654588545
H         8.27737964483182   12.86350813481986   21.15770473930171
H         9.50385618506990   12.26991843191651   22.25821992980833
C         7.99131179819837    9.54571866171923   23.50428860163495
H         7.49311208683927   10.04464514501922   24.32994057562798
H         9.04312639411009    9.46369771449623   23.76278534003182
H         7.58813562763835    8.53998440231557   23.43877989586177
N         6.28578937148527    5.02214333204100   17.80524216318448
N         7.96249738703414    8.48954595179224   19.94997811174016
B         5.94556652403405    9.90394427734961   16.95288869204785
H         5.50575267150723   10.58251060867353   17.81939692103539
B         7.63338232647771    9.25649830112254   16.88572409632929
H         8.58522551636719    9.64306190230768   17.47925843621446
B         7.42551903734721    7.62710756822992   16.12647381963651
H         8.13994827086807    6.68542278392251   16.28072083331993
B         5.20465429028749    8.54030809481317   14.59853565774033
H         4.27065947304504    8.15522743666535   13.99087341519694
B         5.33041221405205   10.13339176359063   15.29083848739548
H         4.46292424228810   10.90942368620189   15.11465679439985
B         7.01763416540313   10.44033344427487   15.68757746148906
H         7.50850270284224   11.51252190802713   15.67612670421251
B         7.95271741006926    8.97469027668802   15.14233740478843
H         9.06986419335173    9.06008864046249   14.77035709192817
B         6.79402388736183    7.83566958530854   14.46047212728681
H         7.00038375452077    6.97635922430056   13.67882405843321
B         6.57780268008504    9.57233212977658   14.17674919340192
H         6.72302300188691   10.04781426503232   13.10915668479331

