121
CSD_code = NADROC | q = 0 | S = 0 | Stoichiometry = C36H70B9N4OTa | MND = 9
Ta        3.50163167415970    3.07904164370034    8.09149827842202
O         1.40940718448707   -0.67068582277507   10.07612857548891
N         5.46525329670625    3.15429373303685    8.31223670317559
N         3.46933160194362    4.57898171878182    6.77054827249479
N         5.67055277586041    6.77891761502773    8.17896738421960
N         6.85568309563160    6.02178908643423   10.15772648200003
B         1.04799469745428    3.80926868966792    9.51208138069876
H         0.48037106155707    3.86898815867926    8.46975772090911
B         2.67435782077103    4.57913224564073    9.89456351234706
H         3.18661779823374    5.51342653561157    9.36109977732413
B         3.42385723859460    3.40394840426520   11.07016781463393
H         4.58445975860798    3.14916768741349   11.12896049144433
B         0.92480737087354    2.60911018227120   12.06001466225411
H         0.36196946500176    1.77944858907132   12.67874764487678
B         0.08059225671760    3.70736255027273   11.00531103913834
H        -1.09207613100954    3.64654695496252   10.91310696540625
B         1.13160959142395    5.08231357668227   10.67375206198020
H         0.75140935086401    6.17908128683916   10.45725597111883
B         2.65983874109214    4.81738048083273   11.68554926246131
H         3.26142715968329    5.74687333983873   12.10076591799784
B         2.44164430185230    3.30545154645009   12.55200213717156
H         2.95428760832157    2.95235832391164   13.55340039444892
B         1.05261528856777    4.36621501126365   12.32023839185766
H         0.55330425286463    4.93231039569411   13.22529267795877
C         2.36425493853737    2.20899337253373   11.16658497214135
C         1.08821868657838    2.44516609251745   10.33792114735509
H         0.63332275914372    1.54160080766354    9.94632692211158
C         6.46312484385623    2.10160552884831    8.21570785044521
H         6.10039789230869    1.42390991053279    7.42113747280146
C         7.86216137549523    2.58511929173890    7.81142126324510
H         8.27368292093275    3.21816795137297    8.59902288910749
H         7.79434776049728    3.18719264074711    6.90434058879802
C         8.78643054990655    1.39245991852091    7.58126070563508
H         8.40107518463596    0.78715638552627    6.75758712015293
H         9.77883086245616    1.74888010941379    7.29791284235469
C         8.88232130929353    0.53328605668126    8.83836005861931
H         9.33158052786845    1.11920297598562    9.64352095195150
H         9.52730815872326   -0.32768706804570    8.65250987572374
C         2.28393617802678    1.27574244273968    7.46626085603505
H         1.23597025153047    1.52548680931369    7.28259903167193
H         2.64675918010769    0.81352641365288    6.54086939884638
H         2.26746828424801    0.47817171517661    8.21105636705476
C         4.66238613396218    5.37741765099675    6.51745507763032
C         5.40545937873988    5.57987539478118    7.84853465984341
C         5.84945546813941    4.45264709793281    8.64963558617087
C         6.54194250456819    4.76911459769917    9.78128726767753
H         6.88891702893249    3.98657494476045   10.43752983457807
C         7.49572027562757    0.06227659203976    9.26713964383046
H         7.56950563947452   -0.52947795604173   10.18186028848274
H         7.07317247916518   -0.57665288859053    8.48834785928203
C         6.57391513906843    1.25593878869027    9.49817649797266
H         5.57732301135098    0.91471116789553    9.78830595739747
H         6.96998174562423    1.86455357570958   10.31228299579717
C         2.27412524228123    4.69019366471741    5.95961044619589
H         1.63327161333691    3.87660524042391    6.33482161801263
C         2.44784854356863    4.39565271504435    4.45928574132248
H         3.04593502972939    3.48833328461717    4.34119159894399
H         2.95913557431444    5.21563401956501    3.95415768526765
C         1.07285004714745    4.20223537197648    3.82227496575283
H         1.18547279919318    4.01319735679170    2.75214006378994
H         0.58900976050878    3.32949424175688    4.26629781736707
C         0.19464225792967    5.43188151732266    4.04090171633159
H        -0.79048266483745    5.26321283707288    3.60126135165882
H         0.64259915773895    6.28982169239815    3.53371440639650
C         0.05537857448898    5.74358042114276    5.52925213799486
H        -0.45003275531878    4.91628625079648    6.03128201921004
H        -0.55622936134615    6.63763991228818    5.66356382112441
C         1.43103200714891    5.96304616420900    6.15489383571357
H         1.33817221179206    6.16037805916167    7.22415684577527
H         1.89023316409675    6.82479631763019    5.67669859655259
C         5.62136218889708    4.62371303140773    5.56347115709872
H         6.60709383968517    5.08296718341314    5.59997835281067
H         5.69695388560063    3.57863469596040    5.85548181683080
H         5.25403744689309    4.67626479951788    4.54229277916093
C         4.42077229801164    6.77168119412905    5.92479743249141
H         5.38251687647547    7.26561502010626    5.82127756680490
H         3.95704458597842    6.71266741574711    4.94644460649110
H         3.81173004701670    7.36356843153357    6.59811808901146
C         6.35564223873444    7.17118028009703    9.36880233864868
C         5.36638774261079    8.00660291175107   10.21008459460170
H         4.51052970555792    7.37622985934435   10.45699044369174
H         5.84317723887393    8.32350501241791   11.13836476888222
C         4.90795414202292    9.23795932215775    9.43588124851912
H         4.38736686643669    8.91208971525894    8.53620607625005
H         4.21295133523190    9.81427787859701   10.04936251706139
C         6.10337005322167   10.09774133981167    9.04035479324365
H         6.62012434747829   10.44647223083039    9.93843312353441
H         5.76437359191711   10.97602607053390    8.48771615843616
C         7.06266496069480    9.28442358875495    8.17889350005088
H         7.92067198789758    9.89412961423483    7.88634552260549
H         6.54324474719790    8.95996336820087    7.27780923793531
C         7.54830190863561    8.05146228868849    8.93432931699397
H         8.11784986843837    8.36589257695690    9.80979823536440
H         8.20435173381143    7.45440093354323    8.29642842175437
C         7.53159660953370    6.22748482630540   11.42577236970770
H         7.65371153309785    7.30552947205236   11.55532016586815
C         8.93314274342710    5.60353913442103   11.43130489808572
H         9.50514366180233    5.98429805331644   10.58225564374062
H         8.86103967222956    4.51957270080550   11.32779655558613
C         9.64430583547338    5.93439789377849   12.74078219827039
H        10.63755544361254    5.48072959263512   12.74558740104610
H         9.77253735469954    7.01639251814251   12.82049807982216
C         8.83479102174134    5.43159548149850   13.93301169706370
H         9.34458887537795    5.69287007773776   14.86225793074735
H         8.76156851120566    4.34279730354379   13.88740482902831
C         7.43203882136349    6.03315064923216   13.92075055409530
H         6.85362406512735    5.64751796983155   14.76147375528636
H         7.50264552547171    7.11757116733961   14.03375229504916
C         6.71767595128436    5.70055902138808   12.61418525724581
H         6.59348193866479    4.62032993922317   12.53654394410735
H         5.72077849652669    6.14138824013664   12.59983649685165
C         2.91849527227598    0.78885821087131   11.24963967317853
H         3.52194145294799    0.58337157802097   10.35308045673944
H         3.58836529887567    0.73265886492664   12.11201053694663
C         1.92951285372457   -0.37318219549736   11.35878702241454
H         2.45035547174480   -1.26543200622379   11.74663064493542
H         1.11104511960207   -0.13895124194848   12.05110107001594
C         0.46457652404794   -1.70345048818883   10.08938615873466
H         0.13892270226517   -1.84569523169866    9.06044195974750
H         0.90146331978690   -2.63740809210227   10.46693768196498
H        -0.40015664403385   -1.44553352402562   10.71425445537309

