45
CSD_code = NADRUF | q = 0 | S = 0 | Stoichiometry = C19H23O2Y | MND = 11
Y         1.31282324790424    4.62830013060781    0.58851721922905
O        -0.67503904055869    3.97491112005484   -0.83555983587310
O         1.55030322019189    2.36418123254118   -0.51198980998441
C        -0.22641286359457    5.36377014773336    2.22063984193044
H        -1.10855568397724    6.00569702983677    2.20038325006842
C        -0.46470868816102    3.93759756351638    2.32104313336798
H        -1.47855898784813    3.55618143409045    2.24412889042489
C         0.60231460741820    3.09278658525442    2.52580897428792
H         0.45829866612969    2.02076063850054    2.63052355021051
C         1.93721215259263    3.65300351005480    2.63393890444308
H         2.73035162660647    2.96789322756821    2.93908727489848
C         2.01474503112311    4.99600235641372    3.20560821835533
C         0.90404205360351    5.87406769440001    2.99315786307305
C         0.95511229202977    7.16503033700108    3.51567908161628
H         0.11384997512787    7.82980463600956    3.36717354385172
C         2.07791540266575    7.61080535866135    4.20111606578419
H         2.10687017315105    8.62316028595687    4.57797030505377
C         3.15120730664377    6.76302198634087    4.40526007260407
H         4.02260950028646    7.11027106300675    4.94164935442201
C         3.11332656639105    5.45954311042264    3.92693353390188
H         3.95189513977893    4.79684021000985    4.09848354257277
C         2.65376991283418    6.31621854761137   -0.16457212501081
H         2.95861518864000    7.02547624291298    0.60152868677935
C         3.45642266078564    5.22542208288418   -0.64194937459564
H         4.39260360410639    4.90332222935502   -0.20013772945423
C         2.97577014753703    4.85639668438176   -1.90650169721357
H         3.39688646698232    4.09019656615658   -2.53938956326238
C         1.88646474941843    5.67395005191060   -2.22583088953842
H         1.33401743042787    5.65109382291178   -3.15415117790338
C         1.66867315310160    6.56712190237685   -1.16964475037979
H         0.99400880851231    7.41443949142773   -1.18195799255805
C         2.44720067612392    1.35088095134649   -0.08402549577707
H         2.72537089493960    0.70523903702456   -0.92469116568549
H         3.33370636237505    1.85680499228711    0.29654212848962
H         2.00389111536007    0.73860527208108    0.70853917720944
C         0.35490388495281    1.82740134032993   -1.05665259493082
H        -0.27023502308183    1.41194724573653   -0.25200190015451
H         0.59144607898353    1.03239196425585   -1.77744916220301
C        -0.39629276433959    2.94435703921827   -1.77275854098127
H         0.22361649134335    3.34053074773164   -2.58937913761017
H        -1.33425573910478    2.54625549986830   -2.18475639845213
C        -1.56735957122710    4.94574392492278   -1.36477160683490
H        -2.51914843135010    4.47786038470218   -1.64202733967623
H        -1.73569361928433    5.67977638302594   -0.57712268791518
H        -1.13758417554012    5.44063793755986   -2.24139163657685

