84
CSD_code = NADSUI | q = 0 | S = 0 | Stoichiometry = C40H30ClF8P2RhS2 | MND = 4
Rh        2.20141868146749    3.11719921045177    3.93474140725983
Cl        2.48014143512554    0.83599337530670    3.77619189429322
S         1.48717231366046    2.86968609942882    6.06012701108350
S         6.61345548928093    1.49485519078621    1.50128701880619
P         2.11062991892822    5.29780945137189    4.33086139799094
P         2.54072422182995    3.14247306467592    1.71730849162937
F         4.42141276265159    2.77385161967300    5.41729243042523
F         6.26635507335507    1.02648683757872    6.42173788233739
F         3.02399724415152   -0.73458765713203    9.33084369528702
F         1.16873766255681    0.98640709983888    8.31447190991105
F         6.99554551006465    3.55938063992027    3.81789815071348
F         8.57284754965951    3.23491476994153    5.94785703779222
F        10.03946539190429   -0.92073059069592    4.31871863988585
F         8.40245008252119   -0.65685762103679    2.17133124382022
C         1.68329346062987    4.48984507253199    6.92181402768514
H         0.66096311567242    4.86514195045791    6.99685908925454
H         2.06181286840052    4.28156730561835    7.92141225604654
C         2.55093780704800    5.45547802576644    6.13949828006721
H         3.61027541837909    5.20044602630799    6.23689656559562
H         2.40754228353116    6.48042901072966    6.49306124896066
C         2.76408082746821    1.89838595623064    6.84313083909477
C         4.07360681750939    1.90126145033598    6.37528082921059
C         5.01079736426498    1.01676949974632    6.88969564884798
C         4.66387371237427    0.11914169964606    7.88375061204139
H         5.39141376792828   -0.57281306001715    8.27490230953560
C         3.36516549061800    0.11838831769439    8.36028014815311
C         2.41772755026760    0.99592937977021    7.84202696796918
C         0.49385985265548    6.13479047077776    4.30672238369747
C         0.27719345441000    7.42101894053349    4.79065747410812
H         1.10066111239716    7.99791454068323    5.18942970002503
C        -0.99531059890436    7.96211892770119    4.76055698198689
H        -1.16228283730232    8.96262734613364    5.13278486229636
C        -2.05630603932219    7.22557862510100    4.25683884977345
H        -3.04664897144925    7.65577173419991    4.23528669765248
C        -1.84903978314501    5.93810291672313    3.78925999762888
H        -2.67725912890224    5.35990776939813    3.40698976486183
C        -0.57775154293333    5.39530791358352    3.81780684764747
H        -0.39317095436427    4.38267198051611    3.46970814229134
C         3.29920769109702    6.45785897386502    3.59486012106941
C         2.97661517837157    7.65541509515354    2.97193996755226
H         1.94884560713665    7.98332822279048    2.92010763719166
C         3.97682335707707    8.42415125924646    2.40201734053734
H         3.72348784480682    9.35842316913376    1.92250665508371
C         5.29377374812248    7.99950992466430    2.43736090913915
H         6.06784479629891    8.60567898686742    1.99041532073859
C         5.61630213137309    6.79046526143231    3.03382634131451
H         6.63939432415776    6.44582273443034    3.05137670541651
C         4.62202047932120    6.02070517644264    3.60331237772875
H         4.85892006723627    5.06330126114948    4.04981002001705
C         3.98876490991552    2.17029762918535    1.10427922875670
H         3.71050346779016    1.11459022308332    1.16284306749603
H         4.22536328918568    2.42141841294720    0.06737370014038
C         5.14580844262360    2.45269899105955    2.04171281374020
H         4.88227939373385    2.11531311996228    3.04460938926037
H         5.39573057700815    3.51314590838346    2.05635337999768
C         7.61084616670921    1.42669362326120    2.94523347540662
C         7.69455361089353    2.41683136693576    3.92556283331238
C         8.52858598221699    2.26342982091416    5.02541393222540
C         9.32346838052857    1.14468658342258    5.17968104257969
H         9.96778313607818    1.03613407499801    6.03497453410097
C         9.27076475462121    0.16904012514549    4.19855819688340
C         8.43270380493589    0.30362002954378    3.10341454193576
C         2.67080167828773    4.73506756266889    0.83238929353398
C         1.50854815871718    5.50198052122852    0.80251476175772
H         0.61291772683723    5.11332476538864    1.26966437176762
C         1.48935391187479    6.73098166755621    0.17467446048307
H         0.57743987785290    7.30997739558228    0.14868848822358
C         2.64176049511093    7.21939827498715   -0.42045633442948
H         2.63246576317039    8.18013136094807   -0.91352400941521
C         3.80582306479083    6.47334083312168   -0.37792326286998
H         4.70803587059281    6.85384608664747   -0.83430606441152
C         3.82392828369512    5.23702776824089    0.24499155594415
H         4.74298702769308    4.67128616362645    0.25970813456634
C         1.17416885520427    2.39419575270011    0.77495768502983
C         1.19444176068043    2.34444359708627   -0.61504215272704
H         2.03393489594184    2.75837124873434   -1.15668687180919
C         0.13727113966625    1.77379392795331   -1.29821184522488
H         0.15480953693392    1.73047658211067   -2.37761296172660
C        -0.94471276699396    1.25698663665110   -0.60190555575377
H        -1.76707519819806    0.81007014547158   -1.14113778090028
C        -0.97217099783287    1.31308023449536    0.78131762642669
H        -1.81531095283718    0.91015493216799    1.32313863215975
C         0.08474849844239    1.88279571139260    1.46837335854519
H         0.08665384474174    1.92144556693880    2.55432620353473

