84
CSD_code = NADSOC | q = 0 | S = 0 | Stoichiometry = C40H36ClF2P2RhS2 | MND = 4
Rh        7.16256244999928    9.79009737519804    3.27705099727641
Cl        5.39014091716851    8.35195802459332    3.39390531438835
S         5.72319237769176   11.58758423590908    3.22602228037951
S         7.92514526669478    6.16082475562290    7.12562080634060
P         8.80183761905499   11.27657637814372    3.30282417440614
P         8.34864581052923    7.89126155384054    3.12302282269849
F         3.83561093594397   12.15294520930968    8.75267420587583
F         7.12603038633319    9.30156712370518   12.01720252890757
C         5.16516604824837   11.76971627999818    4.91025368980700
C         5.60325323549724   10.88159292160629    5.88065772182713
H         6.28711346681951   10.08625525693321    5.58373175338667
C         5.15254216151108   10.99710836394349    7.18222253032553
H         5.46626987198387   10.31029789436685    7.95266467022236
C         4.27094106419179   12.02025469798316    7.48552269666553
C         3.82114265205154   12.91453027395876    6.52848427060492
H         3.12451142183993   13.68995284500140    6.80483820260026
C         4.26694718342151   12.77767034254733    5.22696289558287
H         3.91101364779789   13.44714391599487    4.45847405684369
C         6.77654425932836   13.09319250126019    3.12989839701549
H         6.96298555020788   13.23819796001378    2.06400445190099
H         6.18922882770246   13.92696654172090    3.51366492664078
C         8.07655274828208   12.89699245548960    3.88288359391155
H         7.88623796013182   12.82848832240325    4.95883796855055
H         8.76602571698530   13.72582267880373    3.70036965554834
C         9.52848303294170   11.82066733726145    1.72375702241254
C         9.04014259946392   11.20174357306001    0.57848119967631
H         8.28668606981536   10.42609665043679    0.69177862562902
C         9.50073427783993   11.57396990517333   -0.67087336577863
H         9.11974736992415   11.08814532059887   -1.55717540892429
C        10.45233439585981   12.57474355287144   -0.78044231247551
H        10.81904232488238   12.86810452191343   -1.75305818154370
C        10.93039692649020   13.20808661730490    0.35636135997045
H        11.66510190235504   13.99524442598137    0.26588422360540
C        10.46864435091631   12.83924180928128    1.60675862902251
H        10.83888636267166   13.34168503948941    2.49035352866555
C        10.20012141160855   11.07883638310623    4.44936232003016
C         9.84713545155878   10.80966173692141    5.77044481585516
H         8.79679323413515   10.81208838434408    6.04035096665712
C        10.81343423070961   10.53827059757189    6.71778266262124
H        10.53123705503873   10.32945553093914    7.73989214182323
C        12.14997334545403   10.52563790324672    6.34867618280677
H        12.91046319732135   10.31237602475251    7.08488962376504
C        12.50681214961441   10.77336409388907    5.03479566711353
H        13.54691498974294   10.75106478594363    4.74453912707111
C        11.53795731562681   11.03960907665309    4.08242294686097
H        11.82381986209071   11.20318424854108    3.05416425738601
C         8.00720875754777    6.60987987817802    4.41070334449651
H         7.07987954352642    6.09979565943399    4.14242306602741
H         8.81952048446656    5.87947391184404    4.45083003805418
C         7.84523586408125    7.34118756685719    5.73218450341058
H         6.87002145532702    7.83062836279742    5.75723641300984
H         8.64723221930526    8.07419638874619    5.85996765550972
C         7.66850049556626    7.17603553201200    8.54544573343539
C         7.68987104824383    8.56533580633200    8.52241978782973
H         7.85654661006161    9.10230574789110    7.60374568662867
C         7.50509573456374    9.28151749241565    9.69260291678293
H         7.52316350838541   10.36073801905236    9.69276206144252
C         7.30032451490857    8.59977756938640   10.87662030055630
C         7.27423098843997    7.21591568612131   10.92219395131332
H         7.10934059769306    6.71151601449083   11.86074100343690
C         7.45925857976741    6.50941876302057    9.75257841788688
H         7.44382729130865    5.43067568754443    9.75830540300867
C         8.05271686352080    6.96933639867365    1.58272891122151
C         7.19291623114749    7.50817731637496    0.63444585545386
H         6.69625984943464    8.45056710190203    0.84994827891302
C         6.95364285920375    6.83522674464675   -0.55014604108366
H         6.27912421190169    7.25286467049490   -1.28338694526085
C         7.57603307689123    5.62198736966268   -0.79117772647716
H         7.38767369106413    5.09157893791832   -1.71323608483063
C         8.44103266402359    5.08434287728302    0.14965136065459
H         8.92619509393389    4.13815151234675   -0.04214737494841
C         8.68426908630090    5.75539833643891    1.33314964189825
H         9.36697403165734    5.34313700544293    2.06350104769743
C        10.17684895832926    7.94938440362327    3.08854432582836
C        10.75315151324872    8.44229589245764    1.92021717620008
H        10.11028409030711    8.72771323755856    1.09833318443386
C        12.12425651869590    8.54814740378060    1.79801625693458
H        12.55652563876619    8.92290111935726    0.88115206791673
C        12.94236549391939    8.17052566943030    2.85094710753814
H        14.01580115472477    8.24663111946068    2.75821343426273
C        12.37829417065148    7.69805825472129    4.02266175683732
H        13.01152553673876    7.40808958126347    4.84868495445448
C        11.00359654839247    7.59031375760850    4.14546197878552
H        10.59085158866831    7.21529777570132    5.06973590658805

