89
CSD_code = NADWOH | q = 0 | S = 0 | Stoichiometry = C37H48P2PdSi | MND = 4
Pd        2.28804071688913   16.54615232846145    4.32559914754169
P         2.21584880030440   15.53531506623493    6.32848790003972
P         1.51951520392615   16.87965736326304    2.19237988897957
C         0.35678825527618   17.22501209696742    4.92894662468950
C         0.89428254928026   16.39347689177394    7.22526073424633
C         0.01365675070988   17.09100093526038    6.38112330261824
C        -1.07552099274602   17.73236891996440    6.97311584354720
H        -1.75090794971311   18.31701590952703    6.36672949575364
C        -1.27796613810918   17.67502655428766    8.33958331231144
H        -2.12470484525596   18.18807509681342    8.77326774585387
C        -0.39148515553910   16.99343178896384    9.15855803515740
H        -0.54641479824321   16.96742965614118   10.22748470405396
C         0.69923256381690   16.35367847974536    8.59917169923551
H         1.40197904990052   15.83419626839548    9.23542195103543
C        -0.27074761230140   16.86782891300422    2.54495389847788
C        -0.64512442753165   16.89437473098858    3.91305224608139
C        -1.97338928014747   16.55936196957459    4.21334780619990
H        -2.27716581470560   16.46563340064290    5.24504986271088
C        -2.90288660110880   16.33025813463897    3.22064362105039
H        -3.91909572369091   16.07993148540562    3.49086243514935
C        -2.54652574417216   16.42393193266843    1.88415891510114
H        -3.27838107082984   16.26206803337944    1.10695370042411
C        -1.22415056724748   16.66848881725923    1.55806119011855
H        -0.93131507475331   16.66215150819969    0.51873088055893
C         3.62300697810552   15.26422213505136    7.50751287694836
H         3.24661346763048   14.76343525108111    8.40600558457796
C         1.49838945199812   13.80939127295678    6.16165589797393
H         2.17144647557908   13.28095883279807    5.47135105678834
C         4.21243417670950   16.61502734578683    7.88338738547716
H         4.56214753875851   17.11853555721208    6.98312200916498
H         5.05517940793076   16.49418218645583    8.56279677352405
H         3.46814471057635   17.24884519916918    8.36260413172220
H         1.43968386109681   19.42181725494568    3.33642146546483
H         3.73584572863222   16.09871663654809    3.92471485648257
Si        1.04931305515074   18.99601801915301    4.71062398763659
C         4.67466949017059   14.39549680489408    6.82347544615904
H         4.93327573863762   14.83222430743216    5.85730782935860
H         4.31536364372229   13.38195141032744    6.65622010341099
H         5.57643997781806   14.34341456338184    7.43172096719187
C         1.40349341853332   13.03786479318835    7.47496808465372
H         0.86586862169135   12.10593918994238    7.30241504689946
H         0.84869884466254   13.61154916566751    8.21555799007009
H         2.38030090578435   12.78581764056667    7.87966177998201
C         0.11327171939818   13.90031649739663    5.52506793955643
H         0.12727660065397   14.56461211652031    4.66109587056248
H        -0.60830576013210   14.28814771006643    6.24285918846902
H        -0.22147221364910   12.91620572016779    5.19966417758534
C         1.78125527920138   18.22928340471888    0.90725716044712
H         1.09184238310162   19.02987078992309    1.20939547284433
C         1.74367494628045   15.27899655346157    1.25745909748655
H         1.10090311002462   15.28625350490869    0.36913724685886
C         1.47097056584343   17.87008289273143   -0.54317296046263
H         1.62458362087526   18.75394053929666   -1.16219261067264
H         0.43955743919063   17.55549211010256   -0.67233018656042
H         2.12528027607304   17.08632210043412   -0.91499000781860
C         3.21497560956775   18.74491568473664    1.02958145818848
H         3.92914519918907   17.97178943031493    0.75418612235626
H         3.42555156303653   19.04816098146648    2.05433333702141
H         3.36817556967582   19.60482731549913    0.37832349883718
C         3.20352905980765   15.08496044011257    0.86023340512429
H         3.34955759055162   14.08806829778738    0.44596224769987
H         3.83323530531663   15.18723675304337    1.74647969196842
H         3.52882716212827   15.80956166689405    0.11784142896380
C         1.31978899083680   14.15237153305743    2.19434380255582
H         1.53118876857943   13.18115229768924    1.74851190847487
H         0.25246105020556   14.20677803233597    2.40799573498939
H         1.89217173304890   14.23943690680590    3.13128906591168
C        -0.26743499539543   20.30026522416851    5.11917165113717
C         0.01448739417515   21.43072734148230    5.87365647582802
H         1.01325825965312   21.57179488803580    6.25918654704939
C        -0.95702193972005   22.38210424260164    6.13116133514813
H        -0.71632863682055   23.25197684184962    6.72611797701756
C        -2.23540554935485   22.22252737066227    5.62534437615903
H        -2.99759840883468   22.96123753157851    5.82828518599027
C        -2.52863153739666   21.11401249174623    4.84884115217392
H        -3.52044102042512   20.98672911715744    4.43778820178454
C        -1.55091719321003   20.16881933423929    4.59889763262711
H        -1.78779792287209   19.30972759115862    3.98657039799579
C         2.58760452595726   19.22278530857544    5.80037403984961
C         3.85072919716095   19.08854597696589    5.22518407297065
H         3.93991632493170   18.75888507688385    4.19006593859634
C         4.99410756150694   19.40930817388726    5.93899606094243
H         5.96558736029190   19.31628779504785    5.47419237675036
C         4.89189365245959   19.85960443303924    7.24508654859668
H         5.78011164820821   20.13100393473134    7.79719860570448
C         3.64695413076722   19.94659339170264    7.84567404568651
H         3.56414252034322   20.27516205820704    8.87237614884068
C         2.50746713853365   19.62372908176463    7.12965028298138
H         1.53889433377458   19.68971566706321    7.60628064121106

