49
CSD_code = NADYAS | q = 0 | S = 0 | Stoichiometry = C21H21NO5W | MND = 6
W         0.57985074932748    0.38443083472766    4.91868992870028
C        -1.29217020344607   -0.20008647114111    5.31095928952257
O        -2.38782962742228   -0.39927644496356    5.56399493633474
C        -0.08214732535185    1.06710829905712    3.15828644151582
O        -0.55111276942968    1.54194017297302    2.23112965197484
C         2.39479381323010    1.12892438665897    4.55143260933419
O         3.38757424867092    1.66900198370203    4.36525683913506
C         1.08457190096827   -0.16458738373805    6.77068342978965
O         1.27445132765765   -0.34892360852953    7.88576100377361
C         0.11252486798312    2.14956035703854    5.71383738599635
O        -0.14910604650852    3.15977791098756    6.18268595834674
C         1.02975404855157   -1.55320847787819    3.99752207597668
N         1.96011537092203   -2.44626568315609    4.18086659492293
C         3.03718358917361   -2.25760371874572    5.13760572625684
C         4.32150563810233   -1.79649040078958    4.45267327427448
C         2.02293832089908   -3.72396718065374    3.47423319562639
C         1.25379905367626   -4.80881373688308    4.22318146275262
C         0.06141032512414   -1.85212574360024    2.91538590862727
C        -1.14080581684164   -2.39191239452856    3.20056688296131
C        -2.24314633791904   -2.59339475488385    2.27464756317541
C        -2.55577636873083   -1.66357189371792    1.28064925426840
C        -3.61503632995246   -1.88144020411137    0.42323957774088
C        -4.39961976481612   -3.02558977312690    0.52539084393830
C        -4.10497456243949   -3.93929448243672    1.52994865912645
C        -3.05214914223169   -3.72414970769432    2.39633936781306
C        -5.54796795724252   -3.24179317178366   -0.41154503427829
C         0.50593215990662   -1.55806203807294    1.55753731008438
C         1.58369790114429   -0.84228425799694    1.24875706551749
H         3.21242239181391   -3.20226358388691    5.65976516763822
H         2.72709939873612   -1.50341698433718    5.86420892602725
H         5.09106854420885   -1.62594977233552    5.20009321545373
H         4.68869595558088   -2.53754174867469    3.74602450223468
H         4.14918514949621   -0.86682702382794    3.91774475385398
H         3.07014418586883   -4.01640559574244    3.37563189514561
H         1.60481979990897   -3.60210601389355    2.47356668567061
H         1.36797298412875   -5.75999683420561    3.71008273119392
H         1.62368784784005   -4.91861053997103    5.24010429552503
H         0.19673361289042   -4.56192391084014    4.26410088904905
H        -1.33353978361073   -2.70477230488373    4.22213968494889
H        -1.98838922213542   -0.74731683096354    1.21009149949695
H        -3.84538615453824   -1.14746085980696   -0.33625450761358
H        -4.71104710370617   -4.82815175368965    1.63753555549500
H        -2.83959420478707   -4.44692679687681    3.17222176100263
H        -5.97201349905408   -4.23510007720555   -0.28720854173801
H        -6.33047280095009   -2.50687715473749   -0.22250350517799
H        -5.22589495851363   -3.12401474740196   -1.44516504942505
H        -0.08937212589039   -1.99989951959684    0.76808664948176
H         2.19168931158887   -0.36207874022603    2.00021003709613
H         1.87672960811805   -0.68606162360774    0.22470615143224

