50
CSD_code = NADYOG | q = 0 | S = 0 | Stoichiometry = C23H19Cl2CrNO4 | MND = 9
Cr        7.38047910489252   24.97162760498698    8.66829011411414
Cl        4.81685724152717   33.07806306575494   12.59780018055866
Cl        3.02128560689428   29.24113526550202   15.90530689806521
O         6.24118914299886   23.21053933198915   10.77656392756429
O         9.47109334151735   25.12850694669157   10.77790007274097
O         8.98139773025444   22.53383846576522    8.06782706024881
O         3.48504148084156   27.41283108901322    8.94336821114488
N         3.20858485962628   28.42563260542202    9.80190254312606
C         6.65709719302783   23.88345779209488    9.93316387515695
C         8.67061480382583   25.10769359171425    9.94343335373668
C         8.35261442902500   23.48358178274641    8.25224994527757
C         4.41851868452538   26.47377103227241    9.55163777972886
C         4.74958920993748   27.08358680487941   10.92697280920579
C         6.21706114595619   27.48086187316724   11.11038071424036
C         6.77751220325943   28.11996022651832    9.84151876664866
C         6.70668286610216   27.12958135315466    8.71728112149867
C         5.58146073005295   26.29975674075752    8.61507385397238
C         5.46516070237598   25.39488988404722    7.53308354627985
C         6.48639189107289   25.29333281281375    6.59490306885315
C         7.63178334035667   26.10853915385616    6.70696750546613
C         7.73645329917582   27.01637582666271    7.75939789845595
C         3.83462829550715   28.30302336278866   10.89839978746437
C         3.78393997342899   29.28158408576407   11.99090197383545
C         3.38146106809010   28.85675780587114   13.26269876956119
C         3.48238916851123   29.75508900642523   14.31793276912014
C         3.94666341535536   31.05970484509903   14.16398465505393
C         4.27379234305531   31.45553239390734   12.87196864949522
C         4.18949339974783   30.60300995574659   11.77239845906268
C         2.79901122399596   27.49557540271030   13.49311335448455
C         4.05159905150473   31.96520948383152   15.34832125521979
C         4.53038191477057   31.13521427360402   10.41522616216648
H         3.87782514458963   25.52356495662389    9.65183834521877
H         4.47398990544338   26.39893104908538   11.72925132654061
H         6.29066321569178   28.17459270917881   11.94995736460431
H         6.80454273359827   26.58805610111914   11.34377134654648
H         6.19338277217119   29.01041916962945    9.58709593125628
H         7.81067683728946   28.43171105880170   10.00685540970759
H         4.54721539434521   24.83266850393987    7.41104422949533
H         6.37373641903475   24.64148896149372    5.73716640806952
H         8.39240006836956   26.07717554242424    5.93667573092688
H         8.57983948178163   27.69613937726193    7.80957835289168
H         1.97357172102306   27.56505147713289   14.19853797090908
H         2.42178010036479   27.07155080629716   12.56700760962987
H         3.54091598474776   26.82333970304457   13.92462556973221
H         4.27135504556101   30.42640789192476    9.63660881243990
H         3.97002908663980   32.05101239381701   10.23509313533596
H         5.59056162759863   31.38476254059594   10.35910346594089
H         4.68105481333566   31.50858562651809   16.11081976806483
H         4.47115402098632   32.92702311067561   15.07290485400031
H         3.06547676621071   32.12205515487720   15.78409528714243

