40
CSD_code = NADYAU | q = 1 | S = 0 | Stoichiometry = C18H15N3O3Re(1+) | MND = 6
Re        7.17960525969371    2.52040151036486    2.73293503174620
O         9.40598885145461    2.51929319374075    4.88163117322838
N         5.85688063695381    1.15673600871221    3.75994656362433
C         6.02075128721732    0.73195781868214    5.01348260559294
H         6.98409304724290    0.92627423828378    5.46518569951879
O         8.58582105701300    0.24714029887774    1.17399968872796
N         5.36676543778484    2.52106186255688    1.37604591869210
C         5.03414852689279    0.06444967960472    5.71437679518206
H         5.22079400597095   -0.26664660255958    6.72237791360100
C         3.81458769021704   -0.16624716214168    5.09521974840507
H         3.01809038598455   -0.67783330572086    5.61159885526756
C         3.64357041014344    0.26782072970137    3.79183259085667
H         2.71660050461263    0.09774246380477    3.26725922347076
C         4.68928670298336    0.91875578283683    3.15185268339589
C         4.59123326044880    1.30932634117152    1.70236205430964
H         5.00934000978996    0.47394525843046    1.12493765791663
H         3.54146027174311    1.41794810184270    1.40158558996448
C         5.65516743148993    2.52107586963737   -0.08106271105724
H         6.25369588615352    3.40586388969928   -0.32319263368420
C         4.45078088153765    2.51824808307574   -0.89467117533610
C         3.43847980052706    2.51461335944454   -1.53291179060158
H         2.57184102658707    2.51407765327831   -2.12540490945363
C         8.10840131678588    1.10439448335258    1.75316680387325
C         8.60287404191169    2.51988744340258    4.07190321852192
N         5.85713800323651    3.88392864053688    3.76044792659074
C         6.02114755404272    4.30794338371440    5.01423065173123
H         6.98434495133278    4.11283966045510    5.46590783464811
O         8.58599788566483    4.79427505868831    1.17503747736462
C         5.03483948453765    4.97554025537032    5.71545202283147
H         5.22157536087831    5.30592490929676    6.72367241183953
C         3.81546223430779    5.20724866681294    5.09631428114859
H         3.01923446301762    5.71905193059442    5.61289574767356
C         3.64429593079728    4.77396735905119    3.79268001230364
H         2.71746049102504    4.94488917363819    3.26814387938268
C         4.68967575429297    4.12276256558939    3.15241387868645
C         4.59145385972498    3.73282052578523    1.70272650604933
H         5.00974173298395    4.56837627076793    1.12568512492601
H         3.54164991488998    3.62453018725862    1.40190955692799
H         6.25671347671766    1.63810072857995   -0.32241980453799
C         8.10871117141045    3.93731368378126    1.75474589667121

