25
CSD_code = NAFDOP | q = 0 | S = 0 | Stoichiometry = C10H10Cl2N2Ru | MND = 9
Ru        7.47839584339372    5.87088923575223    7.45358189177790
Cl        7.12757804720558    7.67653855733171    8.89504938457216
Cl        8.46081470757913    7.40387350681100    5.99106410047207
N        10.48319514955782    5.66321894897925   10.33037279054225
N         9.25796942246847    5.75582834461762    8.31774338929585
C         9.36272370187242    5.72281379202066    9.65702511031081
H         8.44269031408986    5.75806589756248   10.23158807147358
C        11.62264306904254    5.65235743612780    9.65203559122729
H        12.52837279849901    5.62146424565548   10.24041901582760
C        11.63156431464836    5.67326644437188    8.26441661833768
H        12.54731776432590    5.65915831201790    7.69735600305863
C        10.40515349039471    5.71942321193499    7.62518472131440
H        10.32344010172475    5.75575676422199    6.54446582546571
C         5.23239212624363    5.43515918643640    7.40015911683611
H         4.39105657590826    6.05712241859651    7.68591155223506
C         5.69201220013651    5.43818472318316    6.07825940276753
H         5.20960922495006    6.05773110840541    5.33050178572862
C         6.76014597975508    4.57998688559640    5.69849742205521
H         7.08449030765786    4.55580358555865    4.66494503575263
C         7.34100307073499    3.72291627303283    6.63919344639800
H         8.10382844890025    3.01462999837499    6.33720950433953
C         6.86996506781287    3.72683846160861    7.98337288389210
H         7.28014236408474    3.01749632886502    8.69457443735702
C         5.81267680052843    4.56289824752410    8.35994779289121
H         5.40971910848784    4.52207808541139    9.36392510607005

