51
CSD_code = NAFJAF | q = 1 | S = 0 | Stoichiometry = C23H25N2Ru(1+) | MND = 9
Ru        0.69290801866420   11.50644973038398    8.87461807373239
N        -0.85246734818277   11.64223382292231    7.60356853835502
C        -0.94803934330726   10.67789992444697    6.71725167415688
C        -0.05958079021201    9.60971500446386    6.90747694239896
N         0.73927513749783    9.73086774707338    7.94233155602682
C        -1.83936696566394   12.62057432446640    7.67091995189941
C        -3.18063702380464   12.29834901143801    7.41951167215319
C        -4.15969875771418   13.26306902724004    7.50699786982547
C        -3.84922528494430   14.58173266322581    7.83549573745270
C        -2.51746467442600   14.89604787073007    8.09251169341049
C        -1.52873251980447   13.93727724626612    8.02166647590984
C        -4.91932342969023   15.61779559645561    7.90110899478497
C         1.48218857423370    8.63613761809960    8.37306965745019
C         2.76578535816186    8.79683867461154    8.90266542532267
C         3.48855653380653    7.70362443134203    9.33031295754249
C         2.96041034548010    6.41620055002590    9.26495650098538
C         1.67279415798999    6.26125042839208    8.75617587870314
C         0.94455092303506    7.34341512214061    8.31191719963416
C         3.75384813745486    5.23549039396064    9.71115678549583
C         2.49773894676174   11.89914850585349    7.68669828573039
C         1.62224463501406   12.97373692135193    7.52929021019058
C        -0.26884676785323   10.97966201703267   10.78063450772520
C        -0.40402453978474   12.39598080101422   10.65440857373041
C         0.88084553340534   12.95640466280398   10.63780353730037
C         1.83183753767408   11.89265461869558   10.82255865529497
C         1.11986144620825   10.69154535895924   10.95145225726656
H        -1.68913662303422   10.68744130504346    5.92743171684801
H        -0.06132390153401    8.72885524462360    6.27707998790009
H        -3.45393052318306   11.27685226379024    7.20054375652096
H        -5.18798755432429   12.99111526745494    7.32241533323949
H        -2.25144704163390   15.91025152924678    8.34982381261019
H        -0.50308339986339   14.21048537126777    8.21299698869430
H        -5.26349097730507   15.85717729413354    6.89490815253093
H        -5.77747915341813   15.25005038954194    8.46001409504560
H        -4.55725163625831   16.53089014425539    8.36495654725011
H         3.20271249807313    9.78171762511233    8.95179755404654
H         4.48442355874840    7.84849477982434    9.72133826669868
H         1.23384900309305    5.27598578372384    8.71274764314607
H        -0.06520237724272    7.20029593530896    7.95670910022564
H         4.27679707846847    4.80341877484960    8.85722397652678
H         4.49843284526263    5.51867908569614   10.45041245124123
H         3.10881635256139    4.46577930784552   10.12734151958287
H        -1.07963025924822   10.28913868660478   10.97780496008220
H        -1.33728441286503   12.93949693551937   10.64906159722442
H         1.11477049493061   14.01169687625349   10.67300174613445
H         2.88746295459906   12.03047107332252   11.01487740775213
H         1.53359252919836    9.72912363044550   11.21338986716849
H         2.64186277250165   11.21227428222410    6.85491768967802
H         3.37576151181857   12.03401048058829    8.31495509343743
H         1.10703769738016   13.09695680478475    6.57881947138064
H         1.84969072327371   13.90633905514467    8.04157165255242

