57
CSD_code = NAFJAG | q = 0 | S = 0 | Stoichiometry = C19H35ClNRh | MND = 6
Rh       11.33585674741489    0.49648147868110    1.67888264823751
Cl       12.09697237864513    0.22285348283917    3.85261705734258
N         9.05335695892729    1.78977865686326    2.88599443119062
C         9.53617988536730    0.62140974280405    2.49862601079828
C         8.82313798316902   -0.70684432478267    2.80388287535475
C         9.67822740825855   -1.88363559780024    2.28448081363760
H        10.72114323105274   -1.77466962538541    2.59085919512042
H         9.62451694318026   -1.96201079701214    1.20158890669007
H         9.30283977945627   -2.81444321942040    2.70667972289603
C         8.77191942818398   -0.88793890112625    4.33348269415606
H         9.78853337456866   -0.85349743423778    4.71935998295753
H         8.34208209315012   -1.85950291078012    4.56865955183312
H         8.19356792527491   -0.12987015180247    4.85256883353077
C         7.43997968233316   -0.87998552141071    2.14022270826150
H         7.24919438804279   -1.94132679896926    1.99176099790422
H         7.42412306239143   -0.39920765206371    1.16372856072738
H         6.61234235493067   -0.49299466425922    2.72832196453354
C         9.97475795241211    2.94576793141588    2.83146240680866
C        10.55904615066695    3.28507411215729    4.20465394903550
H         9.87473244866451    3.83804219610296    4.83827194577476
H        11.44756717204839    3.89510499430391    4.05928124685222
H        10.86505452885788    2.36984258451581    4.70492414585267
C         9.43078436096866    4.18527555533170    2.13059748211544
H         9.01209332042763    3.93597865815039    1.15917163265414
H        10.25942051721691    4.87233280119800    1.97244380495943
H         8.68289251338873    4.70777878178854    2.72006978401935
C         7.67081696113636    1.99702036698681    3.33686751552906
H         7.29044430747560    1.01377224488597    3.58971786624691
C         7.50140118955894    2.83865219623616    4.59935018206233
H         8.12921269917232    2.45853843042337    5.40049030941755
H         6.46262044871252    2.76441403351705    4.91742621810308
H         7.72059791635032    3.88869307905179    4.43751388631360
C         6.78370696615858    2.52856543447805    2.20128692340348
H         6.85247378904622    3.60570454283040    2.09502182584340
H         5.74584356693313    2.28113432810812    2.41403690758963
H         7.05581451736796    2.06522501541252    1.25620811177177
C        10.63017684005567    0.06512190989564   -0.28451777209233
H         9.58756384144195   -0.24961552440795   -0.27697774877639
C        10.86746572129554    1.43610322171716   -0.18873254748906
H         9.99015637207181    2.07290243250420   -0.08542068866461
C        12.05456765431452    2.12246369778060   -0.83408647424035
H        12.31285010910787    1.58904000099232   -1.75065843566189
H        11.76452949946971    3.13487485509673   -1.12464481145700
C        13.27868714772733    2.20825332505846    0.09780602904266
H        13.23947932447382    3.15084071814261    0.65032786656071
H        14.19967123536247    2.22198868174541   -0.49573467646907
C        13.35183328949979    1.07972184359254    1.10057869844419
H        13.86282853701744    1.34460640445458    2.02576779051309
C        13.21076658628965   -0.25431131792056    0.79911117006177
H        13.58761007556685   -0.98175899070704    1.51746182343649
C        13.02159257258874   -0.77274436208592   -0.60785512307077
H        13.52378963575551   -0.09927160833538   -1.30454701251914
H        13.50561198962961   -1.74763640228362   -0.69688479246248
C        11.53599980251586   -0.92203220083291   -0.98388063933176
H        11.20614037699942   -1.93017715780587   -0.72009174911745
H        11.41191749767226   -0.81765244249995   -2.06856382581618
H        10.83250694023487    2.58126986686540    2.23252981958432

