37
CSD_code = NAFLOV | q = 0 | S = 0 | Stoichiometry = C10H20Cl2N2O2Pt | MND = 6
Pt        8.14652896166842    0.10745948319359    4.17239355485988
Cl        6.29709390124393    0.89784281017136    5.35882132083796
Cl       10.01565806448925   -0.62225789052553    2.97828226289324
O         7.68488266342223    1.52689131265033    2.56729547537200
C         6.89730873300432    1.01713247750798    1.75980720619102
N         6.45283022366084   -0.23150942595511    1.90386667945647
C         6.92244346867424   -1.04712086722158    3.01639135116020
O         9.46127835813276    1.32871161377449    5.43079443189849
C         9.83393110664906    0.67910479282219    6.41635395672640
N         9.43676917651119   -0.57679310794712    6.62181504078406
C         8.55662729411575   -1.22862601040919    5.66055417945229
C         6.41095648214922    1.81475886786343    0.57132208636240
C         7.04006116587301    3.20192231522094    0.54075122979543
C         5.54061564822868   -0.86274791224766    0.97625239433941
C        10.76324141520162    1.30816742269028    7.42925489081083
C        11.14541576118943    2.72609352116003    7.02382071847216
C         9.85985996626888   -1.36942411590353    7.75490659082213
H         6.04929820662869   -1.39713270314327    3.58397385164966
H         7.46116109981302   -1.91572475311495    2.61161100057820
H         9.06724133748597   -2.11863533797724    5.26680771703040
H         7.64038354837132   -1.53967697404457    6.18156892240110
H         6.65660923866649    1.26737909653468   -0.34198683737098
H         5.32263408058030    1.89701456113592    0.62976856898735
H         6.67715954293137    3.76070616888998   -0.31819534479264
H         8.12195287000215    3.12243967470578    0.48067970321756
H         6.79283951335102    3.74591147644149    1.44807701191080
H         5.27977525357171   -1.84610286314288    1.35980033954770
H         6.00015285575759   -0.98401610552359   -0.00747744234011
H         4.62515782486810   -0.27860410280909    0.86870940674132
H        11.65711077361369    0.68588434212615    7.51758171512838
H        10.26399155432046    1.31684551156532    8.40155775676897
H        11.81051506277919    3.16285355715738    7.76449674380864
H        10.25613551024681    3.34414363417549    6.93720754789429
H        11.64500858862705    2.71884709962725    6.05906751720303
H         9.33688832033731   -2.32225383487265    7.72745353229733
H         9.61994547011124   -0.86925806838759    8.69471288976002
H        10.93473695745401   -1.56172566618416    7.72120202934210

