48
CSD_code = NAFLIQ | q = 0 | S = 0 | Stoichiometry = C11H23B9MnNO3 | MND = 8
Mn       -2.34872268254861    3.06610644842589   10.81533297740638
C        -1.38366756321550    3.80358183673347   12.73901527919409
C        -1.39629724851192    2.24161451401598   12.74150178506650
B        -0.59020492400396    1.65437370685912   11.35250287291531
B        -0.01185977259023    3.07113909036470   10.41410628631365
B        -0.62661614583449    4.44471157524534   11.36891362344120
H        -0.88350220253602    5.55419536677147   11.04150088802674
B        -0.24579303504979    3.02757583771678   13.81466482173271
H        -0.52335927143673    3.01477515673187   14.95718935994226
B         0.24745628778491    1.62401635930077   12.92369424861868
H         0.36157367921426    0.57789049187502   13.45532309340278
B         1.12843223318106    2.18634622313785   11.48773608372806
H         1.98756892069820    1.52506655402432   11.02247041023453
B         1.10621741084448    3.95503793867309   11.49348230627887
H         1.95714744526281    4.61934181691039   11.02733646915683
B         0.22807826703254    4.45012362272968   12.94054593178511
H         0.32424219031317    5.47414423161376   13.50974230990201
B         1.31552232351644    3.04604780451580   13.01489334404156
H         2.31325782723679    3.04425457066144   13.63577502131707
C        -2.47468576127690    4.58634118931909   13.47822267047066
H        -2.63660713024082    5.54569981057699   12.98691155069801
H        -2.18800023051046    4.79668447289789   14.51016889403576
H        -3.43400397643291    4.06713050971464   13.50274141292974
C        -2.44266507042311    1.51628979594466   13.60525413738720
H        -2.07328322149918    0.53416082761142   13.90017878289511
H        -3.41327962286909    1.38510859465775   13.12376113731887
H        -2.62410008341150    2.07029922225331   14.52568880503447
C        -4.05139423831171    2.96088538751050   11.30773751906281
O        -5.18619227862120    2.88064561507313   11.52822710735497
C        -2.74551639746530    1.93191382070959    9.53025330721256
O        -3.00269013990329    1.17033941110254    8.69091961078915
C        -2.69811110717305    4.46777501894058    9.78017187375804
O        -2.97028029380346    5.33755863416854    9.07632354605880
N        -0.83403650224424    0.29464400519775   10.73401481418287
C        -1.91609745246083   -0.56588399891888   11.17776981321307
H        -2.66859268397292    0.01207663450151   11.70064230227918
H        -1.52451651600935   -1.33668227742547   11.84559592277689
H        -2.39778153022567   -1.05220497603378   10.33011887035944
C        -0.08085617371165   -0.15517921339072    9.77946836796066
H         0.72034779163451    0.48486837490634    9.45179391233974
C        -0.26241697765733   -1.45510711026603    9.09046642656942
H         0.56605215845182   -1.63404257837134    8.41234255757265
H        -1.18503629895212   -1.45135961527348    8.50478180687829
H        -0.32446496577955   -2.28348350454384    9.79698841810610
C         0.27445944463120    3.06274273569743    8.81449396108273
H         1.32001500788022    2.85321872229351    8.58800601419135
H         0.05307654225872    4.02842809429128    8.36372862226915
H        -0.32001603126023    2.32918925054824    8.26560072270846

