51
CSD_code = NAFRUK | q = 0 | S = 0 | Stoichiometry = C21H25ClN2ORu | MND = 9
Ru       10.60606132660650    0.30447580441753    5.69648080018734
Cl        9.64134553389185   -1.85102792312940    5.74514375525637
O        15.52359228248033   -1.69649458481375    4.70316134746555
N        10.63450058369931   -0.03745664988187    2.80793392959931
N         8.62340549523456    0.54702416214132    3.31199041173025
C         9.84616701534027    0.34214661246193    3.84275707896264
C         8.65765214602865    0.31536147276858    1.96038792149098
C         9.92261894210965   -0.05374891685577    1.64205899178008
C        11.92424168374502   -0.45833347910348    3.15531192235121
C        12.12458926409992   -0.44537713094100    4.54994116666904
C        13.35126623055240   -0.89212194061932    5.00100841834718
C        14.35338163212372   -1.30321015458437    4.11580278835210
C        16.56233367170360   -2.16512152640159    3.88103914337377
C        14.12551587502324   -1.28430809790731    2.74528462213841
C        12.89467349990577   -0.86643553452918    2.26272481486047
C         7.44371618851859    0.85600160924431    4.06970700819233
C         8.42623068641145    0.02444834859806    8.43695819564417
C         9.54280175798251    0.74189130659416    7.74200435353538
C         9.31030727187905    1.83216121218845    6.90630711473615
C        10.38763575338394    2.43808692119747    6.19978573596796
C        11.73186676369252    2.06403881254042    6.45303190075006
C        11.95656372354658    1.00263976856118    7.37264948162468
C        10.88973598500079    0.31821497369476    7.95610345500664
C        12.89762185151089    2.85197937613498    5.90153069385756
C        12.75770372190941    3.11918103159662    4.40256028923519
C        13.04165781081953    4.16343132302754    6.68189395729738
H         7.79130611572902    0.42515624362618    1.34060526656152
H        10.34567746434858   -0.32756777628399    0.69816336820606
H        13.57723334019605   -0.95966944831120    6.05515405071685
H        16.25614637730946   -3.04650362823503    3.30802641613108
H        17.37280062041388   -2.43921561543855    4.55519292553327
H        16.91370795173983   -1.38902878894817    3.19222161072932
H        14.88181853612868   -1.60075120704521    2.04526642709186
H        12.70704369871170   -0.86810455227029    1.19903112679076
H         7.52373898791697    0.36997099190841    5.04398910276753
H         6.56523556471706    0.47330960071680    3.55267016286190
H         7.33525668426382    1.93518146726389    4.20581556789105
H         8.64899467913764   -0.10413549010503    9.49573174466281
H         8.31165619857512   -0.96797197452966    7.99309227504224
H         7.48584455438524    0.56264322822080    8.33310824348354
H         8.30900784150371    2.23484240244041    6.80338007985159
H        10.18159494969310    3.31077435380793    5.58773184486423
H        12.97476870613844    0.75281953408809    7.65062989003206
H        11.07912519644446   -0.48185364735757    8.66445509879639
H        13.80606752420602    2.25742695097056    6.05049533056969
H        12.57162433989755    2.18303123206690    3.87766842562821
H        13.67386480621856    3.56013591975152    4.01702758434151
H        11.93945725446765    3.80555964018888    4.19761049555405
H        13.90586991207523    4.71945871600453    6.32635620632487
H        13.17159886101751    3.96521649893793    7.74407476500671
H        12.15647313756831    4.78362855213095    6.55424269214978

