47
CSD_code = NAFSEV | q = 0 | S = 0 | Stoichiometry = C20H23ClN2Ru | MND = 9
Ru        4.30030588618370   12.34242692663886    4.67263735717475
Cl        3.83722726880498   10.38724679320207    3.42319171827082
N         7.07929931544677   11.52163547366005    4.41098703612890
N         6.60586961879058   12.57763604455572    2.59418166187171
C         6.09469143373215   12.21611657810166    3.78846820005041
C         7.89781712932237   12.12747727617828    2.48411395248025
C         8.19613562501373   11.46151688565668    3.62590950810594
C         6.71749727112510   10.91418031775558    5.62129244535648
C         5.36487039713496   11.13236979545199    5.93135768820954
C         4.88832845006520   10.52036258482205    7.08159150035488
C         5.72609693609868    9.76892917360727    7.89420289992245
C         7.06105119180335    9.59701951681207    7.57035794121152
C         7.56916586160266   10.16589545300106    6.41484749839744
C         5.87365387267930   13.24712077002170    1.55657663149116
C         1.01919176663477   12.26682090706607    3.49498998099422
C         2.10001586848741   12.96112925283727    4.26561625095111
C         2.92515136349789   13.91544139423105    3.64226641102596
C         3.96615188324626   14.52994123483165    4.37007835013125
C         4.13160748128740   14.30694909143432    5.76356446191648
C         3.27896486022566   13.35790339740788    6.37655293960805
C         2.27835275382320   12.69090428204020    5.64366635638250
C         5.10209991268244   15.14065824441749    6.56942681168353
C         4.33494042376229   16.04914400743102    7.53591718488592
C         6.10817701364987   14.26815507312251    7.32193918469252
H         8.49228372154861   12.31052144974665    1.61243890959081
H         9.09364951036879   10.95754883714122    3.91816589955157
H         3.84468416838343   10.61003286282431    7.35366562233811
H         5.32987991255385    9.30791689185045    8.78802797612187
H         7.70398891147014    9.00933849832973    8.20845622432389
H         8.60311400132242   10.02063694802839    6.13782338038070
H         5.96045965057347   14.33274493990288    1.64967182308754
H         4.82457155930950   12.95770377891529    1.63432589520910
H         6.25503689787521   12.94318296461576    0.58302419232302
H         0.15672202081209   12.06326164369235    4.12656620866340
H         1.40548343829527   11.31145106736813    3.12877099689102
H         0.70643740660813   12.85836599715259    2.63689101507459
H         2.73918463644902   14.20005520441652    2.61333266422135
H         4.55924598684472   15.30594255417596    3.89248044132874
H         3.33922696421701   13.20397540928765    7.44833481021848
H         1.58561980069847   12.02773844647477    6.15025744383289
H         5.66156689358568   15.77781252547876    5.87284154754208
H         3.79445569832264   15.45899424888678    8.27226172102293
H         3.61897747653458   16.66590995176312    6.99572528146912
H         5.02581225160006   16.70331356474868    8.06259067836306
H         6.62857789576570   13.61243604352774    6.62491171747060
H         5.61076983483987   13.64574672476655    8.06130394475153
H         6.83858777692408   14.89168897262143    7.83269763492285

