75
CSD_code = NAFYUP | q = 0 | S = 0 | Stoichiometry = C36H32Cl2P2PtS2 | MND = 4
Pt        3.69370194234869   -1.45394762976161    7.30279790395725
Cl        4.73289776496531   -1.94698126450347    5.29990482737401
Cl        1.95890176800018   -2.84736778240574    6.76484022619635
P         5.39804949053849    0.06236128142975    7.54383148060610
P         2.68895309927214   -0.73662931014087    9.19858625748748
S         6.77729820642365    1.68811204938765   11.35812263888663
S         1.58723236088170    3.21612301896543    7.88628961093448
C         5.76473827396380    0.86388706414281    9.14369908866701
C         4.78616165168661    1.73093103468353    9.75113985495181
C         5.19591620227079    2.25750507214786   10.93691254486501
C         6.88883351078345    0.73594790496381    9.91007358326782
C         4.45720500565575    3.16238598218677   11.85757821441124
H         4.90410187981621    4.15669515227488   11.86797030664309
H         4.48829754647647    2.77230313604718   12.87360009057238
H         3.42121981901691    3.24866100908671   11.53975095562147
C         8.12976843898034   -0.06284269369447    9.71668407191424
H         7.89401715965148   -1.11855097778301    9.59624431104459
H         8.77431119814829    0.05323933798438   10.58542329355857
H         8.67838281266435    0.26215708102409    8.83350578793572
C         2.49413750645816    1.02956725577783    8.87169852698034
C         3.48811739827922    2.02773163451844    9.13941885526988
C         3.11918266446751    3.26561974924912    8.70141930318128
C         1.43855642180448    1.50849247054475    8.14499545962246
C         3.85497501707792    4.55302433773451    8.81465374805243
H         3.41333189222331    5.18448772694680    9.58672788222674
H         3.81273652018838    5.09592467421286    7.87262428712654
H         4.89433112107231    4.36520151425545    9.07192886314177
C         0.30831101055792    0.74419641720918    7.55848454528364
H         0.63079700744235   -0.27762564686634    7.34345452001848
H        -0.01892251578350    1.21287797914971    6.63259721329826
H        -0.54581504024455    0.69790689196762    8.23540627528959
C         4.98448550865559    1.52202101301199    6.54647588703774
C         3.89779911594110    1.44524649203433    5.68241333587298
H         3.33171655221810    0.51901077111562    5.62010629300853
C         3.54689623775108    2.53744671349730    4.91012682338578
H         2.69988307779471    2.47641338887234    4.24337484328837
C         4.28317184593852    3.70767334926501    4.99191628317774
H         4.01327574387215    4.55947141758528    4.38508394052711
C         5.36193482902215    3.79145777484217    5.85829501544746
H         5.93192705403340    4.70722817063801    5.92562348858681
C         5.70892195795887    2.70702283703552    6.64257748526801
H         6.53150515235066    2.78072872474164    7.34203759314452
C         6.99195751439996   -0.53466468821331    6.91094639794457
C         7.86170067005230    0.23686911370734    6.15309424233177
H         7.61716298978146    1.26103025307844    5.91318939166337
C         9.03906295709510   -0.31879029168117    5.67946153301333
H         9.71080640005821    0.28265910107119    5.08445764009314
C         9.34886422458338   -1.63957629066831    5.95161841359200
H        10.26418751900823   -2.06872999908870    5.57192868220211
C         8.47252979841754   -2.41867294408019    6.69173537644568
H         8.70055072263285   -3.45665837272577    6.88317844738702
C         7.29799879634086   -1.86981493883448    7.16482065334527
H         6.58621668451026   -2.47994533980617    7.70879302034112
C         3.73007189452892   -0.89296678448360   10.68355724756869
C         3.44450536627355   -0.22779499699774   11.86993010882800
H         2.61075221074665    0.45785682749077   11.91472310296059
C         4.23525807866748   -0.44098122574888   12.98343816278985
H         4.01886406335587    0.07975380879406   13.90494448099639
C         5.30243606972565   -1.32372598791667   12.92387443244032
H         5.91698768076749   -1.48413948575128   13.79706148570131
C         5.57891205464279   -2.00173412290772   11.74838096404688
H         6.40505592579573   -2.69611052349835   11.70569121198374
C         4.79089372294336   -1.78883694327425   10.63221252591506
H         4.98315109390852   -2.31374509353025    9.70026014938782
C         1.11448287200215   -1.28411957046807    9.92361178498084
C         0.26000400806813   -0.40791831229976   10.58475874346303
H         0.48478253355421    0.64958910502673   10.61556654980853
C        -0.88379536163750   -0.89189988696042   11.19242853804697
H        -1.55062378310916   -0.21049066202116   11.70114817503293
C        -1.17686019293691   -2.24553612212484   11.14767322683201
H        -2.07507543107616   -2.61662131987251   11.61870702194120
C        -0.32129826653709   -3.12013690363631   10.49845073362063
H        -0.55032771082984   -4.17449505830483   10.46214289805840
C         0.82661981275401   -2.64375863545740    9.89172296956102
H         1.49252087089227   -3.31220883221774    9.36539617053896

