81
CSD_code = NAGBAZ | q = 1 | S = 0 | Stoichiometry = C25H52NOsP2(1+) | MND = 8
Os        7.80284948598953    6.77904740678528    3.47117919172468
H         9.22622036738838    7.22009853603187    3.02899937629613
H         8.11055645320838    6.35917207599211    2.00613937034683
H         6.71405189420253    5.92630692897863    2.73685870125051
P         8.95535708416819    4.56240974026864    3.97392816420600
P         7.34423408426902    8.96304747726199    2.32656352070993
N         8.57478306775120    7.60579039962814    5.34058145973994
C         7.76591390741286    6.88458715029370    6.13804768331874
C         6.65023509830224    6.37380082028835    5.34555902300220
H         6.17839214191114    5.43590915511575    5.61247769138442
C         5.94887232507693    7.31835244447351    4.59727549412632
H         6.03698075431670    8.36707091682956    4.86554860693141
H         4.97161283663038    7.04672582766384    4.21778657033251
C         8.01529150576907    6.71001496276502    7.49297489936744
H         7.35790864655924    6.10059006139152    8.09318598246868
C         9.11636453832385    7.34574772052643    8.04219547433782
H         9.33944962075305    7.24130055531449    9.09243089373140
C         9.92220921643801    8.12597266656139    7.22341552999885
H        10.77510642386328    8.65068718735843    7.62120468243662
C         9.62450335057257    8.21837374168597    5.87481843641261
H        10.24851961256654    8.80028366995833    5.20998708963195
C        10.47429415298341    4.65399231095948    5.08037247223921
H        10.03814952204501    4.96140864142320    6.04317856244755
C        11.46772054439583    5.73657916862169    4.65822179251900
H        12.04676150469748    6.06077717251527    5.52140517975326
H        10.96533895447728    6.60352949956314    4.23669741308927
H        12.16358455876413    5.35864160839069    3.91588379694630
C        11.22462628841619    3.33990553732357    5.28749823008085
H        11.74554685240883    3.04686792638916    4.38037203820006
H        10.57733511403820    2.52601477156516    5.60020415267081
H        11.97498517148819    3.48505136001106    6.06370781379875
C         8.02804377664740    3.11602343161138    4.72958501262350
H         8.66442602708621    2.25089485210124    4.51660051797553
C         7.82541341115028    3.15952250123494    6.24282348593449
H         7.14885862751636    3.94985308113094    6.55120915955873
H         8.76192095315918    3.28445858148914    6.78016767602956
H         7.38644504957872    2.21461433127466    6.56077033286894
C         6.69739344135260    2.91895963436118    4.00668214827735
H         6.22689987537812    1.99642870045380    4.34202776020998
H         6.83676144182522    2.85946865064948    2.92980019646220
H         6.00979737674863    3.73751866465143    4.20507240435325
C         9.44453865767726    3.81321974855045    2.31029206338786
H         8.55892587757596    4.02490439441379    1.69441444527968
C        10.62490322441659    4.56297908900327    1.69371922131207
H        11.56423066344141    4.21529536070936    2.11385809465127
H        10.53878078429907    5.63584187704397    1.85230266659624
H        10.65418750468283    4.37940576545335    0.62175139745672
C         9.70959973027785    2.30908052463108    2.25107564375482
H        10.04205474710261    2.06673628929364    1.24291865359321
H         8.81662042296013    1.72177532112430    2.44348267680802
H        10.49224173822806    1.99920978668032    2.93667181391771
C         8.26852202255675   10.37947631268457    3.15772828158502
H         9.21059852017038    9.90208235407511    3.45826602650088
C         8.62820477783883   11.58647370283350    2.29157331168634
H         7.75038128391227   12.09547887208956    1.90801904158570
H         9.26751378396853   11.31785054309030    1.45680819959602
H         9.17661885036673   12.29808007505822    2.90772231702376
C         7.55596524117236   10.84557266392552    4.42624810676704
H         8.18990241074848   11.54842098059936    4.96489794885328
H         7.34611615272855   10.01661439307273    5.09972492193850
H         6.62332455558462   11.35406990749261    4.19305797796540
C         8.00829104028412    9.03860620458665    0.57933969581060
H         7.85500829545160   10.07292947263413    0.25320337199818
C         9.50054236652018    8.71547090046174    0.53125692514748
H         9.65329507615612    7.64402599108276    0.64097793388736
H        10.06247042327012    9.22320261169692    1.31107303377409
H         9.90740716236244    9.01787218693492   -0.43169006524156
C         7.26209090641639    8.10272210910782   -0.36672539670571
H         7.80203484374500    8.04015991467420   -1.30931076923447
H         6.26082053778428    8.45876164287971   -0.58233454395446
H         7.19733990636217    7.10086611108027    0.05658249488599
C         5.55684540692292    9.52251342592531    2.18816480975062
H         5.27133233999499    9.71345803431505    3.22951539044182
C         5.31774560580380   10.80760352970536    1.40024692103183
H         5.69098777130638   10.73364698656411    0.38256697352676
H         5.76656549384861   11.67192905393476    1.88065862986362
H         4.24441486617667   10.98481607395273    1.34821083242295
C         4.66043149708285    8.40272434523362    1.64837729511004
H         3.68221986915701    8.44454108261743    2.12281053508410
H         5.09353903394670    7.42001304039287    1.82581673456208
H         4.50657154800451    8.51176944940926    0.57928839988459

