67
CSD_code = NAGDIJ | q = 0 | S = 0 | Stoichiometry = C34H29ClO2Ru | MND = 10
Ru       -3.24872752890697    4.39862280394227   13.21649321077014
Cl       -4.39107819488660    2.84577135441904   11.88699278035450
C        -4.76576143629063    3.69311146287352   14.74986763762904
C        -5.12642618663687    4.97044082371208   14.06870866105436
C        -4.03225247743229    5.62610592297378   14.76950055996841
C        -3.66011176429784    4.34987749090598   15.39874314129534
C        -6.28092139030655    5.66871592097349   13.54879581280739
C        -6.05892562342877    7.14918314382280   13.53006315633106
C        -6.97170205670462    7.92357229393362   12.82033031719767
H        -7.77807140373515    7.41296296683021   12.31473996042780
C        -6.85389172614893    9.30013083434375   12.76875645158134
H        -7.57340033612838    9.88278577958835   12.21291654727396
C        -5.81625449314348    9.92955932822451   13.43954103502058
H        -5.72198080940724   11.00488709624583   13.40996995811004
C        -4.90424361769059    9.17575633635356   14.15263680723505
H        -4.09265796846770    9.64679592794901   14.68835064347471
C        -5.00377230621427    7.78664535049330   14.20605471061366
C        -3.97161529604173    7.05380509795122   14.98689911992412
C        -5.53885240394024    2.48880690764372   14.95920403998600
C        -5.28940711128512    1.63493335016506   16.03943087441460
H        -4.50794253861299    1.87312474161835   16.74478633572161
C        -6.06167028152747    0.50635543071208   16.22628982868390
H        -5.86162701961890   -0.14356270799314   17.06597672812746
C        -7.08904711849519    0.20629449861968   15.34511824864169
H        -7.68275493758742   -0.68418385012644   15.49109937130011
C        -7.36085114252162    1.06013825175822   14.28826428394317
H        -8.17208657599289    0.84049754982935   13.61061425121090
C        -6.60307242045301    2.19810354907850   14.09669206952067
H        -6.83056231670845    2.87122168691549   13.28472060167301
C        -2.67019471108177    3.98033732465342   16.39110723143552
C        -2.21001512747247    4.92881474803834   17.30884101811029
H        -2.58612731926711    5.93936937501056   17.26299075176091
C        -1.28017980320982    4.57272366099808   18.26702357222749
H        -0.93488909248702    5.31097208453385   18.97541195905935
C        -0.78912494337901    3.27783955367172   18.32099708788731
H        -0.06424334083085    3.00352540018312   19.07283711326646
C        -1.22236673304009    2.33664890668837   17.39930238415079
H        -0.82794939466441    1.33130949373407   17.42670573158410
C        -2.15339613751994    2.68066373377859   16.43869957244043
H        -2.46920828257164    1.95814746495562   15.69894076801671
C        -1.26849384248629    5.40836713424684   13.40254263335080
C        -0.95180122525151    4.04903045810347   13.05643023544678
C        -1.53466059550440    3.78069150711006   11.79879808625640
C        -2.18571291331895    5.00106589670434   11.32528440896294
C        -1.97308163588048    6.00857262060788   12.29118409788518
C        -0.62115140113888    6.17091449413420   14.51379630729974
H        -0.23190334580515    5.49925676815913   15.27508994636580
H        -1.30819064654096    6.86629063388905   14.99401897592282
H         0.20919991222269    6.75178266851994   14.10801209613948
C        -0.03006461242872    3.15289684117005   13.82121566537752
H        -0.20658444248264    2.10887746360894   13.57445881242618
H        -0.15703757714446    3.27565833339470   14.89509023198248
H         1.00404775371210    3.39761614370149   13.57057008209114
C        -1.33023687969324    2.57724265025817   10.93885348300364
H        -0.78356786538831    2.86475214112594   10.03994547280380
H        -2.29290562207841    2.16388656064044   10.63393875132647
H        -0.77082230565708    1.80660535551649   11.46229180522629
C        -2.73894657875412    5.16499722350421    9.94642233352028
H        -3.28193420585008    6.10216571957214    9.85337847349703
H        -3.41457398882450    4.34232888348952    9.71348493630043
H        -1.92586894100078    5.15658629384335    9.21824192928724
C        -2.25809025232770    7.46809770914415   12.12657145691572
H        -1.51838968590084    7.90412444015831   11.45233218341869
H        -2.19845516570364    7.98814162781770   13.07877921297862
H        -3.24529645989499    7.63739531018371   11.69900803572251
O        -7.33164401157553    5.17085623772997   13.17651016707460
O        -3.18297009718701    7.62858779365494   15.73193584517711

