72
CSD_code = NAGDOP | q = 1 | S = 0 | Stoichiometry = C36H32NO2Ru(1+) | MND = 10
Ru        1.00314177297725    7.41906326183092    2.45647672599150
C        -0.15994771540022    8.74565172562142    1.14876842932028
C        -0.66496651929000    7.34395056754583    1.10688361098777
C         0.51901411850874    6.94096860552956    0.40638032026895
C         1.00368061878225    8.33867987117200    0.39640137649012
C        -1.85550892952539    6.54038950792139    1.28980848153810
C        -1.71369622004213    5.20403326683318    0.65290760072027
C        -2.77948101199217    4.31722440357133    0.77702185171989
H        -3.64992694685845    4.64840283339023    1.32398392240206
C        -2.73234554598844    3.05558221625688    0.20976730682172
H        -3.57467691363142    2.38866473493261    0.30948507700186
C        -1.60430184419411    2.65715338125784   -0.48956338657407
H        -1.55976919907762    1.67722071012532   -0.93884107497923
C        -0.53232051549904    3.52286535726424   -0.61678707668695
H         0.35313246949028    3.22825454173629   -1.16091181537341
C        -0.56377771478594    4.79922885796813   -0.05889265739220
C         0.64164575633993    5.64789926101847   -0.25502166966801
C        -0.83767264312789    9.99028962000328    1.49057100892621
C        -0.19590051463662   10.99139101437209    2.22291408168135
H         0.81914796789331   10.83283230205887    2.56376728227805
C        -0.86645486297379   12.15514377927647    2.54627076387370
H        -0.36333683812314   12.92525340912917    3.11113007321213
C        -2.18328109283444   12.33272589042344    2.15028406078343
H        -2.70259991743713   13.24517224659666    2.39910110971907
C        -2.83386874971562   11.33398007490628    1.44355161952630
H        -3.86190511454239   11.46605855786953    1.14339328434361
C        -2.17211774105131   10.16409723214040    1.12016322961361
H        -2.67778465095342    9.38342836777013    0.57246025718287
C         2.03193321415691    9.01632059864887   -0.35271119901605
C         2.25368695491522   10.39253945169235   -0.20837972262417
H         1.65447920235328   10.96071970018636    0.48469803668521
C         3.22407299581126   11.02337057435208   -0.96052950758401
H         3.38617522750425   12.08367766555937   -0.84151705324894
C         3.98540210036151   10.30263504585006   -1.86907900295934
H         4.74343318786356   10.80089171860552   -2.45317038357731
C         3.76125988256211    8.94405320588988   -2.03397658722974
H         4.34006049235060    8.38422270696809   -2.75229550173251
C         2.79550232242446    8.30041229890880   -1.28611548097499
H         2.61172811532105    7.24771001405958   -1.43432933698538
C         3.06389893755062    6.56181953217667    2.21226172035357
C         3.19641812932669    7.75194068021649    3.01502067614856
C         2.42174991788332    7.56995458015432    4.18643254949124
C         1.85967526842205    6.21272657219258    4.15169325395959
C         2.28229331137724    5.59731729829355    2.95372634588877
C         3.93117221622372    6.22086611342684    1.04738757852546
H         4.75168972501165    5.59203461870300    1.39786488555900
H         4.35211594530597    7.11308989583268    0.59078318490146
H         3.39222910532222    5.65819923647013    0.28566996984387
C         4.10059482738137    8.89937874983104    2.70374698939954
H         3.87590558547445    9.75978158647901    3.32834454149621
H         4.02369830568722    9.19890477110325    1.65902515326931
H         5.13350609037829    8.60248970057664    2.89182037209444
C         2.42548091682196    8.44846477490732    5.39809582802386
H         3.24748410839557    8.14993273967588    6.05124756532491
H         1.49751960582938    8.35664909941086    5.95910918549050
H         2.56630790954166    9.49343960089537    5.13187159947961
C         1.20741801280823    5.52714252373106    5.30897141916004
H         0.55096409487806    4.72738086884447    4.97329207041609
H         0.62978491850514    6.22305324515980    5.91385057096425
H         1.97971607028949    5.08763960521004    5.94295386982641
C         2.10051840045848    4.16354300004091    2.58009158439465
H         2.19877304175049    4.01830591882232    1.50734533826928
H         1.12953780481828    3.78800348185369    2.89742446742776
H         2.86949705402186    3.56584477016013    3.07263308632147
C        -2.77448246440418    8.58631612610558    4.59364588632108
H        -2.87025190379876    9.66895815727604    4.67396865152487
H        -2.96358674081225    8.12560488739974    5.56247975946077
H        -3.49561666607840    8.20706189734833    3.86559410606126
C        -1.48105748091261    8.24257655098584    4.12103081466350
N        -0.42635810629479    7.97086628919796    3.74317071498893
O        -2.85066658731940    6.89827608128035    1.90718206195865
O         1.61061544828167    5.28117846710277   -0.90260385545974

