48
CSD_code = NAGGUX | q = 0 | S = 0 | Stoichiometry = C24H22NiSi | MND = 7
Ni        3.14770195358031    1.95374199539994    2.49809720522939
Si        2.58814732126046    4.29365020899787    2.70977585364538
C         1.89533000527057    3.21020364935874    1.30337107184721
C         1.93673898555330    2.04094475476890    0.87748293309701
C         1.76338688247031    0.83202068629036    0.13416028259171
C         2.47777364512773   -0.27609857666450    0.64477628513956
C         3.26003447888731   -0.03632502277676    1.81443921303247
C         3.97439570070414    0.04328276062305    2.82333912490304
C         4.82821000268577   -0.01457798648028    3.96577386852551
C         4.98369686887007    1.18964076986499    4.69015517902441
C         4.25121728803953    2.29738587985299    4.16033491689500
C         3.74097545871084    3.41269625540560    3.94536262620412
C         0.97668642671091    0.68809179893530   -1.00164480453156
C         0.90368198781370   -0.54714201659361   -1.62118589583515
C         1.60558406436759   -1.63635058303981   -1.12005470136374
C         2.39352505653948   -1.51066625100026    0.01003702197448
C         5.48975698592473   -1.16586962144825    4.37934641449709
C         6.29663588143950   -1.11451223434536    5.50185819067475
C         6.44911774279541    0.06907398999050    6.21321888123857
C         5.79765182567848    1.22333957167441    5.81535243099317
C         3.63076580073736    5.66647284427142    1.87529557984561
C         1.08306199738315    4.92480695238331    3.71064495489893
C         4.05469460582394    6.72223841324735    2.88703655279759
C         4.84908610856790    5.05921963622564    1.19042957276845
C         0.19504936339547    5.81629134889731    2.85359146118254
C         0.28771683441850    3.75002933012671    4.26646765897006
H         0.43272144163973    1.53691482760139   -1.38826402279641
H         0.29385869508236   -0.66598290009521   -2.50450986275618
H         1.53543219011428   -2.59204899457447   -1.61802846992479
H         2.94043431659598   -2.35556088338234    0.40182688003068
H         5.36917582127685   -2.08449195550609    3.82430334482254
H         6.81348254618871   -2.00464082965101    5.82864331770720
H         7.08343458005114    0.08841263857463    7.08700185656080
H         5.91357328048720    2.14488989562099    6.36599076809494
H         3.01923767448526    6.15114989056582    1.11052318254860
H         1.44901619425564    5.51513867428231    4.55392746080445
H         3.18576582644893    7.19172195634691    3.34161139460577
H         4.64926735789825    7.49839057823663    2.40582937660970
H         4.65597581324035    6.27624860741849    3.67603454693499
H         4.54675757845451    4.30609538086417    0.46455612105319
H         5.49503477810357    4.57859178433549    1.92299934170199
H         5.42838537241835    5.82295252850799    0.67303693791103
H         0.74879611742166    6.67910444877111    2.49149068051768
H        -0.65812277782165    6.17509429361060    3.42878718343635
H        -0.18332067660845    5.26618281061446    1.99496929124510
H         0.91950678947216    3.11627071369742    4.88628692298312
H        -0.10501761977592    3.14080610918113    3.45430455671518
H        -0.55041857218702    4.09627187101577    4.87001731294904

