68
CSD_code = NAGHIP | q = 0 | S = 0 | Stoichiometry = C27H35ClN2O2Ru | MND = 9
Ru        4.18476428157275    7.62237583232463    3.57340291381949
Cl        1.91535912661589    7.76048706011047    4.08161405985863
N         2.65519426735113    3.68299199293677    3.37111701235528
C         2.38198036631388    3.22279543310032    2.07951637094838
C         2.37147237743914    4.08582831249735    0.98856407214182
H         2.56222672019293    5.13676034953631    1.13401285810030
C         2.09829316246094    3.58781015559941   -0.27217610431391
H         2.08923832743277    4.26000596162669   -1.11791155901250
C         1.82920581808972    2.24189106684838   -0.45577785665870
H         1.61784986363168    1.86105440965452   -1.44395787019873
C         1.82452780271514    1.38830242318230    0.63557844924985
H         1.60643444412258    0.33914020786772    0.50044758887328
C         2.09983917693978    1.87095263417013    1.90003062634282
H         2.09388463812545    1.22465535005072    2.76273253069253
N         2.31546242536770    2.92178027607994    4.44660773881359
C         2.65525171346249    3.56872764647971    5.52312368401817
C         2.36512050184673    2.97151114106597    6.85246173183678
H         1.87221579999219    2.01600821407408    6.69564932846319
H         1.70640573592615    3.61881384640282    7.42808980477146
H         3.27923325999479    2.81183489964066    7.42085113454225
C         3.26779457492845    4.82469868233989    5.19173593350874
C         3.23429653797491    4.85541137912946    3.75879778316723
O         3.69816193330468    5.69787261866680    2.93607396411689
C         3.85525271191788    5.83504290453644    5.97819867200457
O         4.33107532204701    6.89965281129262    5.51644097185354
C         3.97013325222764    5.64399972111690    7.47807419299270
H         4.56749608588647    4.75071778924257    7.67381753088687
H         2.96758177374504    5.46764884142550    7.87041350091702
C         4.58594662019397    6.85816804101788    8.16703683567252
H         3.98326291537688    7.73288526940809    7.92370855510949
H         5.59063432259030    7.02644033712702    7.77409055780871
C         4.65151569545545    6.67224204380235    9.68033413507843
H         5.21575509324127    5.76227273173615    9.90175612838407
H         3.64108302364967    6.53774727668502   10.07336838415058
C         5.31654582467202    7.84824486466754   10.39647693068692
H         5.46929205120789    7.57867120117813   11.44462610207686
H         6.30067094523141    8.02819432288922    9.95694590582227
C         4.49556695263524    9.13486150326295   10.33944426521603
H         3.49775017804796    8.94222532512530   10.73965611816656
H         4.38171344708999    9.45416354174911    9.30269003850472
C         5.15215923905275   10.25553223259053   11.13656705363034
H         5.25663127705403    9.97172875576121   12.18167393584427
H         4.55428540054746   11.16270649963972   11.08644205769150
H         6.14261995305674   10.47481810414555   10.74278971634710
C         5.33145122412414    9.55595696759683    3.95884761473190
C         6.26767008009474    8.52282082687982    3.66940473951186
H         7.08646911506667    8.34586894758769    4.35954747957062
C         6.18883287484078    7.77808435040035    2.48729196690312
H         6.94081810212479    7.03123062178932    2.26169917948725
C         5.15822193888298    8.03753060737285    1.53742446120072
C         4.24066090329175    9.06604496514759    1.80342891757191
H         3.48733969071933    9.32556709585879    1.06743483339619
C         4.31463258614252    9.80268021419701    3.01740916665785
H         3.60766204009355   10.60767169127045    3.18282441309557
C         5.45703304508155   10.37740370087709    5.22024253971171
H         6.20525949500239    9.89775676567291    5.86175334147514
C         5.94405474939802   11.78980583962833    4.88131308652911
H         6.90127254721308   11.75383281414195    4.36452923852415
H         6.06497282554945   12.36918514359621    5.79320751055687
H         5.22663734306074   12.29985490882701    4.24242590227992
C         4.13072461341627   10.41647266454452    5.98289443709814
H         3.40442923055958   11.04808942723007    5.47821618315810
H         4.28630388647719   10.81018106071246    6.98462083896887
H         3.71478351008237    9.41156399362921    6.05512040257939
C         5.11007986992340    7.25066824461731    0.26312342568483
H         4.27295006767235    7.56209806039368   -0.35695844542472
H         4.99974165446341    6.18945704176736    0.48650378639562
H         6.03621366609018    7.38420003437756   -0.29664080393777

