25
CSD_code = NAGJAH | q = 1 | S = 0 | Stoichiometry = C6H12AuN4S2(1+) | MND = 2
Au        6.52903925477370    1.93319037341041    1.91912468900639
S         8.21618829429348    2.65196458321925    0.46186674604488
C         7.95845390543548    1.81995849817731   -0.97719662246105
N         6.99880146634023    0.93608324862706   -1.24769376047439
H         6.28964042506779    0.64760874426112   -0.59447412253529
N         8.73757871476767    1.98160040058813   -2.04214743505744
H         9.52974738853976    2.60026912771711   -2.06450484640045
C         7.09134820433057    0.42085782225345   -2.60449549282829
H         6.18011167450570    0.65206736979073   -3.16192111976380
H         7.22795607982768   -0.66335800813828   -2.59157189206813
C         8.32389757283746    1.16027655526353   -3.16447900081598
H         9.12446587078245    0.47376094998023   -3.45163962684326
H         8.07615014063791    1.78630761111146   -4.02543858627681
S         4.83568674060971    1.20875192194087    3.36575271533953
C         4.99888123922522    2.12985107142737    4.76368280104283
N         5.90222010730519    3.07569137299350    5.01767374969856
H         6.62561244565846    3.35973274844952    4.37838362908496
C         5.73204622927263    3.65829169071682    6.33938082452587
H         5.54266102007830    4.73172149031589    6.26029352727770
H         6.63114156928035    3.50507792959493    6.94149322256199
C         4.51657027821295    2.88837831752622    6.89557623164421
H         4.76097040068699    2.32397550347292    7.79907141157971
H         3.67257351480374    3.54763494836592    7.11416845017008
N         4.18783089144427    1.98694250486380    5.80729510352185
H         3.42742657128871    1.32986322406536    5.83509940402133

