51
CSD_code = NAGMUE | q = 0 | S = 0 | Stoichiometry = C16H28N2S4Zn | MND = 4
Zn        2.07724382728814    0.78457361459556   -2.53406283909053
S         2.17106540447422   -0.76609817330155   -0.64315508142013
S         0.26998685083339   -0.82113291433775   -2.91279610887575
S         3.91200955532527    1.47605167529454   -3.99839819104556
S         2.05801061229732    3.23094873581876   -2.49789677183291
N         0.28483491456164   -2.56557180889256   -0.90860864134840
N         4.05498834792752    4.09260224947706   -4.02387222795742
C         0.84597981971368   -1.48887183945033   -1.44592249607457
C         0.81203005708722   -3.07662382084155    0.33697282541307
H         1.85947890517942   -3.35977907623077    0.21465252526098
H         0.23729143830310   -3.94133292042188    0.64997651363269
H         0.76287562482705   -2.30719768976458    1.11015647582712
C        -0.84995568250554   -3.23975205565045   -1.52198766188711
H        -1.06297550483181   -2.69929824876308   -2.44908120928140
C        -0.52222891107252   -4.68960393552896   -1.88384388636798
H        -0.31071809194447   -5.27156876335987   -0.98480399620457
H         0.36430826163838   -4.71301665742120   -2.52004913488495
C        -1.71145937668892   -5.30999186388013   -2.61288371899235
H        -1.48617374949679   -6.34822390242548   -2.86289925417895
H        -1.88509683682420   -4.76989189004258   -3.54554725914287
C        -2.96528375983185   -5.24184006313912   -1.74600574341904
H        -3.81062357476044   -5.67347460690444   -2.28427655496684
H        -2.81237405061468   -5.83016994907003   -0.83804622532662
C        -3.27647832215655   -3.79660902432525   -1.36856878132074
H        -4.16346102393754   -3.75872316833917   -0.73377156353421
H        -3.48576781528103   -3.22212216401202   -2.27295178937522
C        -2.09446992083834   -3.16871278495313   -0.63470122026164
H        -2.30959391157490   -2.12554095416022   -0.39640933891112
H        -1.92731338526345   -3.70387961956675    0.30208210199813
C         3.39766163883630    3.04269190988308   -3.54586152435374
C         5.18297222211090    3.86767874088779   -4.89999794874347
H         5.93360445456531    3.25521541561148   -4.39639923295224
H         5.62189644516172    4.81829637287311   -5.18232128589389
H         4.86330026965036    3.33282991019835   -5.79671449872706
C         3.68154629437025    5.46018718648893   -3.69421266942447
H         2.80668182558928    5.38991238477984   -3.04104960716315
C         3.28083158039545    6.25425045813970   -4.93896197203209
H         2.48666037591833    5.72366542832548   -5.46719093353344
H         4.12968489385860    6.35826176214707   -5.61744939345652
C         2.80091363200646    7.64177693561223   -4.52075409548124
H         2.52469735833536    8.21591909113745   -5.40688819719615
H         1.91249226317291    7.54281091920895   -3.89415063825876
C         3.89124665123487    8.37331098587129   -3.74345791011773
H         3.53002654913007    9.35605984288097   -3.43624730639945
H         4.75970053342727    8.52392570613396   -4.38920388959938
C         4.30483351883422    7.56765730618360   -2.51547472996384
H         3.45094703833738    7.46691837199160   -1.84282322457941
H         5.09755747146714    8.08903570763729   -1.97613613368796
C         4.79100037462868    6.17966936509082   -2.92452917632054
H         5.68410824751322    6.28008444450337   -3.54433289683545
H         5.05480665968584    5.59669337410404   -2.04034348166579

