37
CSD_code = NAGMIT | q = 1 | S = 0 | Stoichiometry = C8H20F4NbO4(1+) | MND = 8
Nb        4.92465185619330    9.47755728485757    8.25079606231867
F         5.01427130222686   10.61645010977284    6.83921073521967
F         4.94678457261442   10.70518503780600    9.59575409116234
F         5.85429872265880    8.14141614451123    9.11907055776160
F         3.84028594630362    8.27931915423959    7.37385568033433
O         7.16174462445470   10.36764091220505    8.32980752322806
O         6.41697690014402    8.35973908423856    6.53031716660756
O         3.45926087284325    8.61221615504814   10.00650177001021
O         2.66134794350431   10.55366112689737    8.14181788587538
C         7.89867694696166   10.14301736207619    9.52802964242039
H         8.17233148389711    9.08971538514651    9.65090491270072
H         7.25060592979084   10.44454454755953   10.35307901580394
H         8.79908916363850   10.76515940039079    9.52600257228510
C         7.88543684748764   10.12169487503188    7.13601704266283
H         8.93069867855863   10.42833014091382    7.25433915174107
H         7.40208125247741   10.72755839790716    6.35939474444168
C         7.79067719643248    8.64746230072247    6.74524729473525
H         8.35300403874816    8.46546865195827    5.81931698111023
H         8.18669006409901    8.00406144492356    7.54671575729803
C         6.19054023179023    6.97658874071734    6.28925523917877
H         6.82313306836816    6.63743095625085    5.46299070572745
H         5.14302322912773    6.86774289017824    6.01047947249830
H         6.40237519065860    6.38259274343107    7.18680580952693
C         3.10332188363729    7.23365180169897    9.95290277036174
H         2.61548634182647    6.94535228953299   10.88918991349790
H         4.03485151753201    6.67630723385204    9.84322372485404
H         2.44620011812154    7.01069690900690    9.10590783934341
C         2.36926586485014    9.48923412398519   10.24108052327480
H         1.65262088588396    9.02884409718215   10.93029825917244
H         2.79888614563587   10.39140677437596   10.69373277930075
C         1.69386481201801    9.87093218321550    8.92505952934403
H         0.84207978949998   10.53724473838258    9.11800996629979
H         1.34366707231040    8.97408528801498    8.38961770119486
C         2.17911637715769   10.85434277001803    6.83711881192728
H         2.06378818602965    9.93939568481982    6.24263551573489
H         2.91175860333527   11.51013009699931    6.36773347739197
H         1.21950633918339   11.37562316213203    6.90977937365382

