68
CSD_code = NAGNOZ | q = 0 | S = 0 | Stoichiometry = C28H31Cl3N4PRe | MND = 6
Re        4.65727827597215   -4.89235928414018   -3.49001826799907
Cl        4.79977271914984   -6.21558603748100   -1.56587800439153
Cl        6.93920385106191   -5.12352568504484   -3.93376718254529
Cl        4.37051073703999   -3.59013781614786   -5.47683330147853
P         4.98700172736122   -2.98069434444150   -2.12150730937154
C         3.40411124773147   -2.22895707155258   -1.63714389323619
C         2.93710417466861   -1.03848093456007   -2.18030568414800
H         3.56312070572391   -0.47457964058028   -2.85718495386659
C         1.67337951801617   -0.57808338964868   -1.85119701009479
H         1.32015221095729    0.35667096092608   -2.26323275851854
C         0.86335969595767   -1.31011867514069   -0.99900040534065
H        -0.12255182616210   -0.94816100414747   -0.74655801578207
C         1.31430745587856   -2.51266088680874   -0.47644375613180
H         0.67829080374855   -3.09045134082027    0.17783377032532
C         2.57664841134896   -2.97233290436286   -0.79636086873833
H         2.93852706240756   -3.91388878891846   -0.40412397241180
C         5.82985104608626   -3.26945290976547   -0.52988974222687
C         7.00441147864012   -4.01560989495787   -0.56922675982598
H         7.33944508532062   -4.43030216495282   -1.51045892558372
C         7.72712054728241   -4.23771951173449    0.58719247532525
H         8.63280579404477   -4.82486456534012    0.55075476466086
C         7.28690974167725   -3.71174265428890    1.79082018543337
H         7.84804618668865   -3.88800876861589    2.69693440796270
C         6.12474367299523   -2.96065519805619    1.83227458542824
H         5.78010364366523   -2.54777996267514    2.76969790728611
C         5.39628236464274   -2.73520478163660    0.67741430174893
H         4.48737612269703   -2.15154357049555    0.72354787110499
C         5.98253129145781   -1.56494391731452   -2.69210458664805
C         6.09325847550391   -0.44404390857675   -1.87121138938185
H         5.56708960290614   -0.41688748427975   -0.92662923673191
C         6.87212364832087    0.62652991036199   -2.26321338524031
H         6.95241402892424    1.49525971155744   -1.62564232418282
C         7.55438466364758    0.58505755118638   -3.47015326276266
H         8.16435919837147    1.42368188206172   -3.77281262909568
C         7.45780380416115   -0.53152308173201   -4.28122118485723
H         7.99335775202326   -0.56945411591695   -5.21816206717126
C         6.67553959974144   -1.60634855549777   -3.89377016906124
H         6.60700374617110   -2.47783497537044   -4.52660479630041
N         2.47422926474249   -4.69620334877463   -3.32165191537794
N         1.90900195791486   -3.62677080219687   -3.90031969274051
H         2.49864669563549   -3.04444541071396   -4.49751374031632
C         0.57633094589903   -3.61618094997107   -3.73882082899631
C         0.27258431687328   -4.73542585211848   -2.99188434662152
H        -0.69481933409769   -5.05235496361646   -2.66089216839432
C         1.48957105837446   -5.39146593871557   -2.75677099184759
C        -0.28075911360130   -2.54738322163196   -4.30546123454825
H        -0.04033377091868   -1.59080739703669   -3.84330529987634
H        -1.32740884268437   -2.77303198199395   -4.12480120735511
H        -0.11556434501433   -2.45683744770387   -5.37782320170254
C         1.68452297833656   -6.66570248236753   -2.02246092869196
H         2.37787896068676   -7.31091000707075   -2.55756741524686
H         0.73108275682142   -7.17337320696373   -1.90143457659123
H         2.11339398503174   -6.47917558401353   -1.03908582933822
N         4.43856760013592   -6.70816946993669   -4.58563979889984
N         5.33737346444069   -7.66247240766245   -4.32304119128595
H         6.11310697600993   -7.45552334506772   -3.70413834359041
C         5.09884080618501   -8.78566814823640   -5.01840398947236
C         3.96688694541144   -8.53454037391491   -5.76669446065097
H         3.47629642813721   -9.20090054424002   -6.44583718705844
C         3.58534994546466   -7.21858130806066   -5.46753217107820
C         5.96402817054053   -9.98557981610955   -4.90882162987903
H         6.97572056414162   -9.75489110866598   -5.24099210361449
H         5.56746641857308  -10.78868422244201   -5.52289721860223
H         6.01688948972326  -10.32280099204398   -3.87437839604182
C         2.42781461132210   -6.47147339183726   -6.02617541988464
H         1.56820423241676   -6.53941933750794   -5.35920759133723
H         2.15101531863042   -6.89122311392895   -6.98991425776656
H         2.68640324894079   -5.42216601657863   -6.15204728929435

