47
CSD_code = NAGQEU | q = 0 | S = 0 | Stoichiometry = C24H18FeO4 | MND = 7
Fe        8.61480920250960    7.91539750157413    8.70275943114571
O         7.18505224653944    8.69526185836592    5.55277224447377
C         7.34255339316030    7.96014557149809    6.50519594554510
C         8.42154544896901    6.94427169192869    6.71742155437756
C         7.97742628417043    6.03874038784264    7.73282169928807
C         8.42325004582113    4.63830943051917    8.02799831125137
H         9.51098048374400    4.55652439679892    7.99083773477447
H         8.01171954480764    3.97389939046475    7.26043028999458
C         7.87923427174539    4.20265496983047    9.38693910799115
H         8.13445454428244    3.15758132139656    9.56722389165017
H         8.33542466121503    4.80762027903249   10.17485388101346
C         6.36304746086730    4.38518320963604    9.40887462610533
H         5.93844368338180    3.92700585998346   10.30307909644113
H         5.93240854531555    3.88170983638842    8.54027002295767
C         5.99521792085157    5.87037130641831    9.37848712915626
H         4.94156078576731    6.00137381391731    9.11520226369669
H         6.12712790934086    6.29063877457987   10.37759811754900
C         6.84039180895354    6.61127608693220    8.37874550322748
C         6.55205241604407    7.87070115544587    7.77083891253354
C         5.35754075727963    8.67778036576190    8.03878090723969
C         4.98673531780936    8.99328544539472    9.34572791135920
H         5.61882945959835    8.68188005649086   10.16582134847214
C         3.84515836850615    9.72932285498072    9.59434036551194
H         3.57133734581873    9.96877767646538   10.61149997440756
C         3.05750588507731   10.16730547339354    8.54158141870122
H         2.16577469206152   10.74434074780935    8.73676834966555
C         3.42619802877102    9.87312529407871    7.23995479728680
H         2.82162174946227   10.22161791081526    6.41566867553912
C         4.56794471978582    9.13597444671012    6.98495485041863
H         4.85690008907416    8.91495135115523    5.97002329839738
C         9.43844386454368    6.72753003304631    5.68031175978046
C         9.67206108896088    5.47833255192365    5.11006141615326
H         9.10257397753764    4.62056640576760    5.43066320565962
C        10.61183369398733    5.33087390689563    4.10590652879610
H        10.78173373239959    4.35488423062810    3.67464453369095
C        11.32707321936453    6.42393773457609    3.64958218296327
H        12.06067538684892    6.30397296497216    2.86634677262327
C        11.09182295348127    7.67367175506675    4.19981653036171
H        11.64054170537406    8.53318000677439    3.84428244102693
C        10.15853319294706    7.82378702214850    5.20574722942654
H         9.98007098188302    8.79603628637578    5.64148025370362
O         9.16811203749215   10.70121246420352    7.92357739151432
C         8.93797547573864    9.61229603207991    8.17118381332735
O         8.22313447949992    8.37495892329612   11.55264900463694
C         8.34326714987476    8.18637379046212   10.42900652304786
O        11.33682874089713    7.04961782915646    9.24377643145982
C        10.26097124843851    7.38283959701762    9.04029232165401

