117
CSD_code = NAGQIY | q = 0 | S = 0 | Stoichiometry = C59H48FeNO7P | MND = 7
Fe        3.83846546112123   15.65342648256895   15.09497827188875
P         3.55197710837102   16.30093868702956   17.17027239242841
O         0.68926689649229   14.69785160844108   16.44684614459558
N         2.70089358091675   17.68611586617958   17.64696909496753
C         1.55148128209242   14.67380700640691   15.58102969784071
C         1.71987403210035   15.58748887447971   14.42723475559735
C         2.61488344004217   14.97101157166425   13.51127096434724
O         3.99344072498957   16.17889227846176   12.07467850265343
C         2.87527647216800   15.29311936902002   12.06917734558291
H         2.00459342939631   15.79557981524962   11.62006869661169
C         3.18931883448876   13.97605817997556   11.34417558288671
H         3.40559422308837   14.16156904008085   10.29066396205524
H         2.31416627969663   13.32691775508401   11.40646513602578
C         4.37979964988056   13.29821176090751   12.01782588380686
H         4.73657069323569   12.46425994613634   11.41132088462486
H         5.19056014097290   14.02057030492950   12.12950844388134
O         3.10074211950206   11.68100763595564   13.35788053169217
C         3.98803694739166   12.78640057491625   13.41065747248193
H         4.89586781056641   12.48392551465075   13.95746423462518
C         3.23466437213961   13.85849334761884   14.15290923314289
C         2.74514676531151   13.79413485429546   15.48605342875794
C         3.06921226441173   12.75795332948206   16.46730211902020
C         4.39742502324155   12.43137908436682   16.73911250928993
H         5.18856141513675   12.97875252671836   16.24336041616632
C         4.70972985388850   11.44897549011003   17.65705913529208
H         5.74348377977532   11.19809561262888   17.84635955161722
C         3.69951896704489   10.79670006453421   18.34576170745871
H         3.94581791700334   10.03582596395198   19.07183436956735
C         2.37850469846064   11.13482463488478   18.10650068685175
H         1.58774402454668   10.63734239608396   18.64971462801645
C         2.06079295913476   12.10203037588190   17.16990339087121
H         1.03152963137216   12.36057958390371   16.98014365293671
C         0.77318090643636   16.65200895761314   14.08565982580784
C        -0.57740257181076   16.53187457666569   14.41129780128077
H        -0.91964281464448   15.65088068638944   14.93025673189986
C        -1.46680195328445   17.53680881181615   14.07980871062614
H        -2.51101996421194   17.43299032692362   14.33686563262751
C        -1.02633231339416   18.67212302535116   13.42028831807653
H        -1.72334570457230   19.45635332936586   13.16332264173986
C         0.31503128847929   18.80241062757093   13.09808016567375
H         0.66760724848759   19.68796323243015   12.59037890076884
C         1.20835371125459   17.80237688908912   13.42882929764441
H         2.25892110247744   17.91030514315890   13.20123025021188
C         4.31392747877923   16.81764888164189   10.84755950974372
H         4.40154935768856   16.08215228747481   10.03778772395527
H         5.29880073962265   17.25666209195190   11.02967885783449
C         3.33014574637736   17.89534979015698   10.47001574717918
C         2.28509471543472   17.63577767149455    9.59323801504590
H         2.18747841194370   16.65474900956222    9.14863861938320
C         1.37471966732656   18.62821462874235    9.27247797197489
H         0.56559649371856   18.41471690722219    8.58960208006138
C         1.50485044061480   19.89187567807316    9.82041387487164
H         0.79882034706468   20.66805746356740    9.56383869077466
C         2.54210098912944   20.15775367582667   10.69952291768384
H         2.64856671965902   21.14363840565488   11.12897863693831
C         3.44557973284215   19.16335429969356   11.02725858585874
H         4.25063942344195   19.36585248259833   11.71846509837900
C         3.70874758943571   10.42919487045249   13.12712718244041
H         4.61187817903805   10.33466409271015   13.75420458460172
H         4.01233624374428   10.32636721347304   12.07428819223400
C         2.72661217306563    9.34936385182958   13.49383549882898
C         2.32475737391032    8.39427114453012   12.57174452877759
H         2.72000536531310    8.41829465875499   11.56587127470440
C         1.42208789230507    7.40893254854677   12.93433253332269
H         1.11708665620205    6.66720277542930   12.21044949396134
C         0.90736621580058    7.37744530625856   14.21862341632684
H         0.20064366450318    6.61019295466173   14.49928778075361
C         1.29956110702452    8.33387022269444   15.14056178497681
H         0.89976891134572    8.31662749676137   16.14377867448059
C         2.20719707470870    9.31291933311250   14.78178330244023
H         2.51317599322515   10.06152257047120   15.49608356928463
O         6.59234457003816   14.89321820264784   14.68279068180365
C         5.51174700069236   15.17817877886569   14.95231318090476
O         4.96310767511292   18.13193001327932   14.12002313514067
C         4.45237608632647   17.16551390962957   14.46922751565352
O         4.89948161961715   16.69721602542952   18.01074390709808
C         5.72460589748856   15.63747980339822   18.35563920772169
C         6.94522702486729   15.49541838722648   17.67974689777137
H         7.20254330388100   16.23129974815059   16.93377657913553
C         7.77809350779867   14.45815482342903   17.98696394281449
H         8.72417661864044   14.34838106736430   17.47819917985627
C         7.40312986366809   13.49772671036022   18.94947676093522
C         8.21380621180389   12.37633447776041   19.22533776462841
H         9.14804678025672   12.27233159770648   18.69215943869999
C         7.82220811485290   11.43439162857664   20.13447869316390
H         8.44680044557020   10.57677956756266   20.33705916964222
C         6.59342694532770   11.56812507716064   20.79831012490148
H         6.28134481503725   10.80372250887145   21.49440486658514
C         5.79077755062784   12.64939398218548   20.56402606512229
H         4.83836764561659   12.73535833249471   21.06344817140354
C         6.17862844473727   13.65440217326610   19.65189924980249
C         5.36091193936123   14.78453554096198   19.37668342872107
C         4.12902552979270   15.05758470401777   20.14254496095871
C         4.13919674614669   15.18603879917572   21.56001526366028
C         5.33366248291376   15.17935315312138   22.31214400212405
H         6.27737345178445   15.08561586728583   21.79708227356086
C         5.30731611414227   15.30669608045852   23.67305676148979
H         6.23032671849527   15.30402127058522   24.23382455132798
C         4.08859265561685   15.44769547214656   24.35281825499039
H         4.08611187712432   15.53738444176146   25.42904018214035
C         2.91692557408704   15.48788804087103   23.65127289334294
H         1.97373890870713   15.61797959620199   24.16230041514067
C         2.90918489868312   15.37437588122682   22.24522779976254
C         1.70923813270294   15.45677582208165   21.50754645126418
H         0.77778573700970   15.58080846489652   22.03989738189865
C         1.72540834830704   15.40857434924035   20.14385138274385
H         0.82494197088138   15.48714257133242   19.55613449313909
C         2.94039821636533   15.22684341023434   19.46850280254795
O         2.91482178752993   15.14581172936246   18.08494890030874
C         1.27937679205719   17.68110881566120   17.33748821053391
H         0.88824279004768   16.66732538174160   17.39436148458177
H         1.07425866304891   18.07470714820938   16.33694572501015
H         0.76286189202116   18.30559648093701   18.06941413738884
C         3.31735588433846   18.95205662710391   17.29393023195042
H         2.86830245067422   19.73667599950465   17.90495123877886
H         3.16869621858092   19.20322443239569   16.23754320213890
H         4.38241966117634   18.90521564774574   17.50577978692480

