117
CSD_code = NAGQOE | q = 0 | S = 0 | Stoichiometry = C59H48FeNO7P | MND = 7
Fe        3.04031902242915    7.11586706034222   21.64197854451467
P         1.47729375588696    8.51366659660559   20.97463325851140
N        -0.05659581421825    8.30298806103815   20.31457235049083
O        -0.10071319925153    6.01187898028169   22.51585737075881
C         1.11666189258920    5.87860258341486   22.55907903770986
C         1.98858268131039    5.19414369772863   21.58672336195691
C         3.28161708129896    5.06542598035345   22.16615934997305
O         4.95757131619457    4.80450260883992   20.53902842086482
C         4.39923950182929    4.18286798277602   21.68788461793167
H         3.98928203360997    3.20002007361623   21.39698409275352
C         5.44310846554971    4.02024267682670   22.79885288996451
H         6.34378857637823    3.55823836891308   22.39171554202150
H         5.03926022852472    3.36898566610512   23.57623438451290
C         5.76211775656028    5.38565369438863   23.40069454207250
H         5.93714986518086    6.10859432156061   22.60173238277592
H         6.65227690128359    5.33163983270738   24.02952794929721
O         4.31908155939976    4.96689092889983   25.32103983085279
C         4.56117675660349    5.84730912930320   24.23694331039859
H         4.74102243870473    6.86337651509037   24.62977690557130
C         3.33321848722211    5.84115206451781   23.35992586362638
C         2.06719907234101    6.46064165807782   23.54924638401110
C         1.55882417758227    7.18478525433920   24.71554821773066
C         0.49189474507599    8.07188278197185   24.55700290078291
H         0.07666272972993    8.22214062422206   23.57393755278798
C        -0.03387225699061    8.75022063111448   25.63960146565190
H        -0.85634490200763    9.43564879837010   25.49298963316290
C         0.49030761451588    8.55598822924761   26.90729187748803
H         0.08248169055846    9.09002574108067   27.75332428464916
C         1.52835516005000    7.65652989058854   27.08243671547462
H         1.92663211588280    7.47205497597778   28.07044065331142
C         2.05547031134202    6.97400027752780   26.00198383640124
H         2.82315901004420    6.23880257329268   26.16463619834132
C         1.47533488722111    4.38224677426772   20.47663191456985
C         0.33215413589056    3.60497100304285   20.65548613706274
H        -0.17197011033470    3.61794666289536   21.60959554989298
C        -0.15487599515734    2.83029775046518   19.61871031625371
H        -1.04138836061026    2.23117276900692   19.76857394002058
C         0.48893143383689    2.81870372026236   18.39277824349270
H         0.10678057013579    2.21204203025386   17.58469191719351
C         1.62124258438944    3.59501884285260   18.20505531642048
H         2.11877206464634    3.60025439815993   17.24547218285184
C         2.10974823880981    4.37440126907859   19.23609877463323
H         2.97825224328492    4.99887835051599   19.08888016678112
C         5.64813972058155    3.93899815147969   19.65696234889993
H         4.99854321081409    3.09503741020251   19.37814949266652
H         6.55074430917861    3.53384096982116   20.14118494679106
C         6.03290135660410    4.73539975794043   18.44084798508904
C         6.94049746837648    5.77945720248444   18.56353749400885
H         7.37190290901975    5.99299251721732   19.53009570196937
C         7.27425069017465    6.54833916843625   17.46437997610950
H         7.97539853850219    7.36291971970719   17.57031652282825
C         6.70686863264411    6.27773374698747   16.23044778073100
H         6.96629778201774    6.87927690041269   15.37168994946478
C         5.80326805716983    5.23788163655130   16.10142359101790
H         5.35579376718280    5.02541015019055   15.14128244179851
C         5.46418061644681    4.47221617333173   17.20360235936772
H         4.75384041701183    3.66395838893587   17.10317577192901
C         5.24288029733826    5.05498995800030   26.39195764572476
H         5.60874056845276    6.08666076428985   26.49184729717748
H         6.10653692210734    4.39855511932262   26.20227846690678
C         4.54042215068791    4.62946780701199   27.65443997689889
C         4.01301591873150    3.34810379864121   27.74825352589972
H         4.12791358274746    2.67001213219081   26.91649233177601
C         3.33734297003702    2.95189370258877   28.88747680369363
H         2.92889500310656    1.95418855898364   28.95128967104586
C         3.18464585110675    3.83160962921320   29.94612365553917
H         2.65857448319551    3.52173865516762   30.83682270452013
C         3.70481541094250    5.11081407423152   29.85739635033848
H         3.58428155332087    5.80194449496082   30.67878640494553
C         4.37563739217941    5.50981157048457   28.71424510516089
H         4.77459075720268    6.51219849977691   28.64631162705626
O         4.49197041887948    7.36039066699694   19.15448402491931
C         3.92171188569632    7.16028424777284   20.12441118209430
O         5.12352836160887    9.03262834040339   22.22479621161989
C         4.25050580040131    8.30227371982505   22.05969373325014
O         2.24940241209495    9.25374984561883   19.73098815778282
C         1.77190844741334   10.47006186314859   19.26835481691236
C         1.14963659506156   10.50716266046786   18.01140002201966
H         1.05374222192047    9.58208666422233   17.46493948811506
C         0.69646123366315   11.69224928203024   17.50880711556073
H         0.22905589155772   11.73174623253193   16.53591557023235
C         0.80292318846691   12.88050485106577   18.26126475151381
C         0.29201644761158   14.10376869887701   17.77908204904800
H        -0.16240078697344   14.12103182796809   16.79882591568307
C         0.35819130532723   15.23925924316859   18.53579592589905
H        -0.03577268061583   16.17187916470251   18.16000303518396
C         0.92497933653587   15.19391084279739   19.81808394615724
H         0.94753091060760   16.09038194313739   20.41988983410673
C         1.44096131658343   14.02739697057891   20.30982960020934
H         1.86239051513110   14.00011401336566   21.30285354697333
C         1.41953589713735   12.84370760313586   19.54060996539775
C         1.95085342727583   11.61350999754523   20.01865251205733
C         2.64004046334381   11.51541160466692   21.32152972037179
C         3.77501535768119   12.30552392100082   21.65044918724091
C         4.40654477062621   13.14651948321292   20.70912500193549
H         4.02181078264680   13.18500042051757   19.70152845418562
C         5.49910779856264   13.89068315653784   21.05677530970187
H         5.97557113078906   14.52607661974733   20.32497901723005
C         6.01536266518873   13.83347462956357   22.36004542745205
H         6.87341163729435   14.43586675513932   22.61932132741429
C         5.44425829453597   13.00730656854647   23.28596628042222
H         5.84737774087879   12.93862920069933   24.28604661082205
C         4.32583221740051   12.21306507337546   22.95667105905587
C         3.75893921742915   11.31919422016339   23.88857933382313
H         4.17973296384487   11.26298987258147   24.88139289631598
C         2.72072293858010   10.50666131612298   23.53338467338337
H         2.29577904494178    9.78842210218063   24.21717350778603
C         2.17271461907009   10.60656456502075   22.24656997848701
O         1.10349201660816    9.78792898750046   21.90879828407507
C        -1.26926037750041    8.48680231059669   21.09300438537818
H        -1.14458158082653    9.33838175070147   21.75668712467311
H        -1.51860887201770    7.59598945817639   21.67335535967759
H        -2.08464945983207    8.70191511854396   20.39898954856280
C        -0.13022162138026    7.15698120358686   19.42462543304341
H        -0.85399996526745    7.36812815705417   18.63445336217872
H        -0.43815848639393    6.25049021715482   19.95187507791604
H         0.85000375419228    6.98884211976263   18.97501611929949

