53
CSD_code = NAGSIY | q = 0 | S = 0 | Stoichiometry = C27H16N4OS4Zn | MND = 6
Zn        5.05589495815307    8.52263504819062    6.94754090954217
O         0.20545457298034   12.71887276311095    5.94761907425952
S         3.23599479225038    9.00929110199656    8.50097332069121
S         3.34705204551948    8.37182703512360    5.18257707383418
S         1.37668113381674   11.22839744478607    7.77071483049459
S         1.51995238179798   10.69596127069821    4.89919110196487
N         5.33897135023886   10.65701703304361    6.42404278197759
N         6.57506556297965    8.51684629294110    5.35604516914100
N         6.46639469307597    8.46085079511083    8.58118739064405
N         5.13431827453727    6.41080771179913    7.44002177445017
C         4.66695796920887   11.66245966982362    6.94597071705529
H         4.47608981608511   11.60818325405117    8.00955490657989
C         4.21027880981924   12.75054449894453    6.19440378290557
H         3.63466145628563   13.52693310391612    6.67324508211403
C         4.48729133679119   12.79217397495479    4.85054247331913
H         4.13776610292507   13.60590287901303    4.23235878794000
C         5.23283370885615   11.74888064668749    4.27182911309491
C         5.58230101383256   11.71645325762616    2.89214481458637
H         5.26890074714385   12.54161966681220    2.26981222574489
C         6.27975482547001   10.67813969383263    2.37209034690211
H         6.54436220106441   10.65647675322491    1.32517875006897
C         6.65695916181812    9.56937727802694    3.18309751145401
C         7.33098667401692    8.44575447717564    2.67968879141080
H         7.60676078109138    8.41258005088419    1.63548949871784
C         7.61402179244067    7.39897550346320    3.52456060605594
H         8.12867763169997    6.51950080020334    3.17062615390460
C         7.20104575130055    7.47560607809098    4.85654918036225
H         7.38245479973689    6.65908582658890    5.54173079005795
C         5.62125560651004   10.68394115393922    5.11121793146345
C         6.31722545807920    9.56141227857239    4.55384941782790
C         7.09384500711074    9.47799015236283    9.13271437102193
H         7.24806560932751   10.33719237501077    8.49571688821053
C         7.54077314015305    9.47274167245540   10.45411439186675
H         8.04936950463374   10.33611605927275   10.85332055339839
C         7.31792687045223    8.35811500358715   11.22973142288888
H         7.64213881388389    8.31784372560713   12.25937868773994
C         6.64894077903175    7.25825223123221   10.66858706922782
C         6.36060397561966    6.07099674245270   11.39991011149430
H         6.68350794427230    6.01640792463360   12.42917809708118
C         5.68620699263574    5.04401424633569   10.82804069170141
H         5.45791922736943    4.15000952363995   11.38956257440719
C         5.24616535205969    5.11904691956299    9.47650870159508
C         4.51563424916992    4.09583845721114    8.84948054179079
H         4.27406634133308    3.19878494370926    9.40129033758247
C         4.10991911687918    4.26224245629810    7.54701851465940
H         3.53783186246981    3.50278935605511    7.03818801911765
C         4.44194208310842    5.44427221954413    6.87920635628317
H         4.12598674758075    5.61759839434436    5.85962479000912
C         6.24091254409530    7.36204279918090    9.31998916501523
C         5.53114653848064    6.27498471705362    8.71570716209534
C         2.35790454784944    9.84538789535731    7.27720922709551
C         2.40556821656472    9.58931097935209    5.94776541874526
C         0.88255912644800   11.75421386309926    6.16200259834561

