66
CSD_code = NAGXIF | q = 0 | S = 0 | Stoichiometry = C37H23N4ORe | MND = 5
Re        5.83038132107166    3.05823061547346   19.41190075597663
N         6.27844538781941    2.57676049933810   17.52680467462747
N         6.25547195811511    1.10481423801123   19.45186599656303
N         4.42596046870372    4.20009588813922   18.52120625374789
O         6.92634411190156    4.06003067766358   20.16376784092461
N         4.44535694842449    2.53035541002764   20.77478714324304
C         7.01593629359746    1.44374139783400   17.30695754053116
C         5.38843449997517    5.15464808188020   14.97429645714062
C         2.97220555238125    5.95292314603747   18.44065454717747
H         2.22753586059877    6.65904788558591   18.75155551534036
C         3.66980915207204    5.94603019128711   17.27073194917667
H         3.58812447504929    6.64478673447050   16.46123316689501
C         2.94441007768252    4.45614625049959   20.46855745162812
C         4.55142575824023    1.50285064811516   21.69020406611572
C         6.20457566782873    3.28465312333636   16.35929970959336
C         3.42744030170314    4.84878720383203   19.21685561115931
C         4.20960387837219    5.33958675861311   14.25685878439562
H         3.28481529376884    4.93628872454464   14.64307004957209
C         5.39518349585679    4.42183445970975   16.25220300652370
C         7.01844813241563   -0.91976052445226   20.08357457522057
H         7.20430306238303   -1.78949135765847   20.68321141217584
C         4.56068133461099    4.83333460993712   17.30014547581819
C         1.85493216927185    5.24821102258751   21.07752343691605
C         5.09300362115304   -1.93424855746785   22.42224824490046
H         4.81807970563484   -2.23302270736920   21.42129426667371
C         4.22447417518105    6.00998637644481   13.04753355231387
H         3.30461343638523    6.14324631618141   12.49691936129756
C         7.01681395835318    0.59586824943269   18.43312030812020
C         6.58153612966872    5.64697998378912   14.45179187178383
H         7.49707994120149    5.50996038532378   15.00809735149091
C         6.20967595608049    0.18437095963906   20.46540809123657
C         3.40633977942461    3.33926585715286   21.17525034320189
C         7.45228830275276    1.44153408448396   15.96700155336789
H         8.04601870090575    0.67771203909340   15.50345547354027
C         5.41383991474795    6.50602014858499   12.54013279844300
H         5.42304069483614    7.03106168547053   11.59650531962093
C         5.40732826141019   -0.60229864957149   22.67567287345256
C         2.84627481202849    2.80787880550928   22.37124711872641
H         2.00953294254513    3.22413583079049   22.89726361413704
C         0.62600250238139    5.38343483025291   20.43898382870218
H         0.46389609753060    4.89015152911021   19.49161895821775
C         1.03838581358478    6.61580207088097   22.88301287450029
H         1.20250723440334    7.09852722163939   23.83519154159881
C         5.73339774565361   -0.21931382215402   23.97411189358142
H         5.98737524772482    0.81167909646680   24.17185560965919
C         6.59166629876977    6.32242613946230   13.24540069527269
H         7.52189022651872    6.70667859783646   12.85323978022872
C         7.50615887338623   -0.66743297670853   18.82138325926890
H         8.13510675000598   -1.30372429335968   18.22939485157065
C         2.05004017189471    5.86859442296822   22.30804561311631
H         3.00557978511121    5.77113492155265   22.80179136023560
C         5.40524153289226    0.39438971005873   21.59004674476433
C         5.75115088408795   -1.15174562622792   24.99478366151980
H         6.01160627653622   -0.84505928845267   25.99719514964377
C         6.95205440147458    2.58073322681051   15.37753087222896
H         7.07373336471302    2.88606132107464   14.35623259475109
C        -0.18186441568774    6.74641856864390   22.24093215107653
H        -0.97184405814727    7.32887466309886   22.69132622049763
C         5.43689585339029   -2.47542164165304   24.73456032108322
H         5.44867036084712   -3.20241870416961   25.53300649034546
C        -0.38592825427523    6.12644225342119   21.01950346460088
H        -1.33768317273910    6.22152929634846   20.51728754106968
C         3.55206457054344    1.68616155738156   22.68929308572026
H         3.38400617368621    1.02293400247318   23.51544450880454
C         5.10547327858205   -2.86291001926116   23.44704135829092
H         4.85345092298223   -3.89290354980793   23.24057800687402

