67
CSD_code = NAGXOJ | q = 0 | S = 0 | Stoichiometry = C21H33F3IN3O4PdS | MND = 4
Pd        2.73046816554682    5.92978131398948    1.95241251798000
I         2.77829113168431    7.83614419720947    0.23049866298684
S         0.57500536951130    6.39939529752053    3.25101111960252
F        -1.54274720237030    5.18776501109471    4.26046209241818
F        -1.82142922134591    7.32472913325165    4.15750098483775
F        -0.55319657665711    6.47018132588186    5.68590607190699
O         1.29235705511708    5.27888046774173    3.78409987813731
O        -0.05699834773164    6.35800357472717    1.97157987099729
O        -0.18966360006956    9.67656445424377    5.29224063326269
O        -1.21836909577490   10.53996457102662    3.49270145204823
N         2.35669115750202    4.08542820964742    0.49990418243838
N         3.94038979825441    4.03242883396664    2.94645794072567
N         1.15303775810351    7.86307083551262    3.68095102154866
C         2.91967747360056    4.31143940797769   -0.83451173280737
H         2.71545193631577    3.46695542573739   -1.50657921665442
H         3.99859932003695    4.46190939027792   -0.77146768523899
H         2.48261393190032    5.20710956241884   -1.27336260444579
C         0.89496523910340    4.12608869181469    0.38406247265448
H         0.51959601358786    3.42878010992860   -0.37606224897266
H         0.58867417288609    5.13369121832623    0.09123578867743
H         0.42765024742785    3.89716872879822    1.34307606842643
C         2.87383293018525    2.80171064539072    1.04545008439320
H         3.85019892995767    2.63200317439944    0.57563182552571
C         1.99704519160597    1.58980375402669    0.69340395822759
H         1.01535547450509    1.68563132748766    1.15889026370025
H         1.86161208514437    1.54413152738026   -0.38971410422834
C         2.62540268956563    0.29041386330204    1.18033394352105
H         1.98904159891438   -0.55061580120123    0.89917757225257
H         3.60097581687743    0.14383820631497    0.71047350557773
C         2.78606127265183    0.35155459139017    2.69204966419398
H         3.22740546335009   -0.57459480655822    3.06551229867128
H         1.80640941174084    0.46842068523197    3.16047272713939
C         3.68053747620651    1.52741392079972    3.06363618658818
H         4.66287724884615    1.36268112843740    2.61557153111080
H         3.79862480781036    1.55524263746738    4.14728792947017
C         3.10402172250488    2.86840409598497    2.57223297315408
H         2.13468342504687    3.03172169190536    3.06120356181075
C         5.29527882615780    3.99801617262119    2.39708677660745
H         5.86277919731844    3.12284905432161    2.73920288197832
H         5.82880206807670    4.88597793925862    2.73400571895857
H         5.27611611226093    4.01105562249943    1.30856259551943
C         4.03338454624357    4.17727251533398    4.39917786090371
H         4.66460475189648    3.40085469518134    4.85095669493305
H         3.03903923350332    4.13580920257271    4.83878590253012
H         4.47037728656490    5.14880776953342    4.63556667610140
C         3.45314669480434    7.28167644517563    3.21288687660573
C         4.80788936698482    7.48381182619819    3.42611673063712
H         5.53653807831575    7.03739064671926    2.75782218082073
C         5.23278814226837    8.30897912417979    4.45755009609414
H         6.29002913620276    8.46311378151458    4.61574318112357
C         4.30854568030110    8.94723799249012    5.26875480792785
H         4.64343521111388    9.58694585401648    6.07064013671406
C         2.95345069751482    8.78955641927308    5.03785364753455
H         2.20972611368119    9.29786497648427    5.63107499135866
C         2.53914352868475    7.96735079033072    3.99874176274292
C        -0.92504771218982    6.36562122839575    4.41183562380352
C         0.50274578522077    9.00830991639922    3.07609775924310
H        -0.14379585432141    8.66862308102939    2.26295426475164
H         1.25158476866932    9.68562408257638    2.64943918356667
C        -0.32982423467557    9.77058698017172    4.10303383767030
C        -2.07269102188520   11.33982209155280    4.32065627707154
H        -2.35561647894556   10.75542626381663    5.20150553148022
H        -2.95120654382544   11.53719340478854    3.70431065988030
C        -1.38835568841011   12.63325870437738    4.73601583329636
H        -2.08456044785980   13.24719938390575    5.29985751497378
H        -1.05974610047177   13.18305814021217    3.85757958559863
H        -0.52591141415627   12.41546549194000    5.36095321772223

