57
CSD_code = NAHBAZ | q = 0 | S = 0 | Stoichiometry = C18H32P2PdSi4 | MND = 6
Pd       -0.00152074027223   -0.12607802482858   15.09324659104422
P        -0.93007372779797   -1.90708997726562   16.41445017814357
Si        0.97156851945011    1.52098582627298   13.72646206925562
Si       -1.93537477942954   -0.07161574948149   13.68308077377816
C        -0.25552081194131    1.78254891473385   12.29351253218181
C         0.06526709694700    2.65733552853622   11.26414097511752
C        -0.80976142023726    2.86871631891108   10.21482175236568
C        -2.02381296136885    2.20057342296276   10.18696791864183
C        -2.34933951611628    1.32834572850156   11.20937077438349
C        -1.47822553996174    1.11085225824433   12.26524800211956
C        -0.74813408720360   -2.04022696546831   18.22885530931306
C        -2.69129915504921   -2.38012190911317   16.24463263305732
C        -0.07404537584888   -3.44471167096466   15.85201238725789
H         1.33029432436846    2.86036281359392   14.24852821160071
H         2.23920548745544    1.04254887746751   13.08313611669280
H        -2.35584630365194   -1.32660094668853   12.95447694221516
H        -3.28256954579272    0.37374087362940   14.13819245979172
H         1.01227853816355    3.17756226779381   11.29184033967925
H        -0.54975295377956    3.55396022292583    9.42001598340547
H        -2.71349279865515    2.36357466966889    9.37037187420678
H        -3.29535947491737    0.80588711399697   11.19626485315666
H        -1.07564910753910   -3.02446906334306   18.56808132938023
H         0.29078316397615   -1.87152710665507   18.51010461049265
H        -1.36163416758825   -1.26614350696570   18.69213761761448
H        -3.30342276681199   -1.54407156403716   16.58473800517831
H        -2.92802794385387   -2.56999585529619   15.19838498107560
H        -2.90488412580249   -3.26359780194508   16.84867232808813
H         0.91376616229478   -3.45289232180642   16.32854083672439
H        -0.63633242176930   -4.31991768030107   16.19866657787127
C         0.07424952518324   -3.44451585522035   14.33449718525720
P         0.92998550194906   -1.90658346451815   13.77232467593609
Si       -0.97150580514841    1.52198445915420   16.46008445885062
C         0.25561934438666    1.78268830158781   17.89303120268961
C        -0.06519222435520    2.65734828476942   18.92246171699852
C         0.80982369027141    2.86862668686615   19.97178579862522
C         2.02383663878791    2.20040433036711   19.99958709040445
C         2.34934239138986    1.32820885983392   18.97712664616572
C         1.47827377360110    1.11088541247548   17.92116100356877
Si        1.93559409159442   -0.07087439761950   16.50270824426370
H         2.35550383590187   -1.32603399568993   17.23143832067546
H         3.28318203008168    0.37395114622139   16.04841837938121
H         3.29536886623665    0.80575696976695   18.99021077357953
H         2.71349601805150    2.36333226978363   20.81621348715606
H         0.54981128741756    3.55381624570814   20.76663821945788
H        -1.01219933304380    3.17758691464251   18.89477879625968
H        -1.33034910920288    2.86115431386055   15.93775620931114
H        -2.23892657604883    1.04221591677347   17.10288769642992
C         0.74819160189773   -2.04018881008377   11.95791769626533
H         1.07569201100917   -3.02446165500996   11.61877669533773
H        -0.29070252173437   -1.87156175600699   11.67658763689521
H         1.36167944647097   -1.26618616141133   11.49449218318015
C         2.69112746794821   -2.38005125959792   13.94190427085688
H         3.30332621525704   -1.54406665054191   13.60179554636193
H         2.92792162274811   -2.56996360968167   14.98812774182654
H         2.90469889282254   -3.26353718577059   13.33785998775060
H        -0.91359023422345   -3.45278330397112   13.85802397598238
H         0.63655798345382   -4.31968669980870   13.98774939669375

