141
CSD_code = NAHFIM | q = 1 | S = 0 | Stoichiometry = C51H82LaN2O4Si(1+) | MND = 7
La        4.22050235428636    2.30480592758355    5.32419163705895
Si        3.32644871733348   -0.97414877413630    7.35556872428249
O         5.73633429603388    0.84508423067404    3.31411564550397
O         2.25360296589368    0.92645941237652    3.63229369332146
O         1.54633037672724    3.48328392968235    5.82954922378300
O         3.72268091305393    3.93631206818662    3.02164340417914
N         4.85644927368032    4.33077088594672    6.86233041797779
N         6.48662908097979    3.47944245407112    5.58797657691820
C         4.26432316641420    5.22498032645577    7.76789570619909
C         3.56365223648389    4.69883858475180    8.87768856363251
C         2.98398177076847    5.57209545549399    9.78558106578839
C         3.04733960655013    6.94178847277245    9.60734479439996
C         3.67108296100496    7.45055055935111    8.48757770169109
C         4.27705364047530    6.61841095634134    7.55730752476574
C         3.46718236245934    3.20158802603247    9.09513002585467
C         4.75257743506421    2.64975901944459    9.72215243307896
C         2.27951022862425    2.78994439556803    9.96868259360370
C         4.90056992011407    7.25227090119098    6.33292448260065
C         3.84963326517402    8.02409382810570    5.52357911919377
C         6.03516463653340    8.20995791708626    6.70678440748396
C         6.15411994262414    4.29693601283216    6.57949718530817
C         7.16374573140240    5.08753496979349    7.33679538640234
C         7.00644372848813    5.31802382120932    8.70326306969221
C         7.94816955566767    6.03863057203493    9.41488857534774
C         9.06931234491844    6.54612402063469    8.78098751018624
C         9.24000937068644    6.32016257577405    7.42607093836903
C         8.30058715159589    5.59835919861991    6.71199783387035
C         7.80587160051514    3.16135620064675    5.22329524762368
C         8.24601471837179    3.50682013500094    3.92742508658429
C         9.53815103253402    3.18882969604627    3.54072252405430
C        10.39211050612417    2.51251745267902    4.39216329776636
C         9.94486228323016    2.13242244780580    5.64069849836213
C         8.66341523379778    2.43991033351452    6.07620381046795
C         7.32589813276345    4.25462085164213    2.98472968896530
C         7.40524688163221    5.76603979229923    3.23982582314738
C         7.63287189462921    3.99426744539171    1.50721619250511
C         8.23209333522433    1.96085884944871    7.44394362602826
C         9.12374734026861    2.53891390235088    8.54633801885345
C         8.25884682722102    0.43038562985427    7.51893403867373
C         5.63147325841483    0.84713020217348    1.88250083107537
C         6.74286175016772   -0.05160341045080    1.34052155146938
C         7.78375246266586    0.01856385776745    2.45443897215443
C         6.89658670139023    0.08551187051781    3.68998481172723
C         2.39871515418344   -0.43941820734446    3.24746322704539
C         1.08763367281392   -1.13496718737366    3.63677791647406
C         0.07050852511163    0.01763959746057    3.69762546250508
C         0.90210509327544    1.24683068380590    3.30923834801015
C         0.40770467123827    3.09024401873002    6.62015341638652
C        -0.42713662595683    4.34478286521808    6.87276276677598
C         0.62101435747217    5.44862511785109    6.77187808483585
C         1.51067618436636    4.90586983811039    5.66184001948695
C         3.19586313652882    3.54147937657774    1.75996806248328
C         2.08407441012036    4.55167101308279    1.46524191464181
C         2.61993040286842    5.83872690642190    2.11441769974389
C         3.84737261179662    5.35583362920930    2.90728282768675
C         4.66721577794935    0.20236235578038    6.70555873089878
C         3.38359009374898   -2.63586815809921    6.40463868902240
C         3.54160699465989   -1.38746179097056    9.20901202561957
C         1.58618060339587   -0.19323834174016    7.14630624000350
H         4.27978309628119    8.36697519864237    4.58458795133142
H         3.51116780229359    8.89646752464733    6.07570928284317
H         6.54274398602763    8.55626174599531    5.80886431098457
H         6.76251665280165    7.72591629999245    7.35025191463269
H         6.89365872709969    6.31646038422496    2.45174071754720
H         8.44473281113607    6.08915170483475    3.24729280147506
H         6.80639790303312    4.34182606289509    0.88816945407447
H         7.79028413028151    2.93725051557391    1.30990533121143
H         8.71100580063107    2.29892008714640    9.52373137029861
H         9.20291272927596    3.61841914551056    8.46065930904191
H         7.90683580940878    0.10251233478131    8.49440705164452
H         9.26903810394688    0.05473422694464    7.37928891570350
H         2.48093754567298    5.18677683370597   10.65716519203475
H         4.63633747517592    0.49219134740621    1.59990510288800
H         2.60262194100539    7.60436372042693   10.33348701608911
H         7.11879253970052    0.29717367638248    0.38202191403051
H         3.69575348965145    8.51845771383998    8.33790503728766
H         8.44772589145970   -0.84107571616384    2.47104865508313
H         7.37845981826984    0.59143544743567    4.52808208833273
H         3.34469842911114    2.72392490713178    8.10357878661865
H         2.54628089905314   -0.49458527324853    2.15905897866088
H         5.60038584221229    2.78434017742248    9.05595137482844
H         4.64288324459922    1.58654683881409    9.92389248510862
H         4.96070540751892    3.15760399531094   10.66238956020198
H         0.81188023813459   -1.88802884163413    2.90255028318255
H         2.12800287267391    1.71496773891290    9.89315271698215
H         1.36366359171751    3.29227273032994    9.66462151785838
H         2.46745579758669    3.02080922537017   11.01452890124542
H        -0.33170765733985    0.12242650068009    4.70359933663823
H         0.63669030354686    2.15481423281991    3.84787642495586
H        -0.15319806189821    2.32100233377975    6.08191494802020
H        -1.18391177470906    4.46770175227679    6.09700022789257
H         1.18952001778332    5.53055062240538    7.69819312478771
H         2.53453266238665    5.27566712950432    5.72252188405037
H         3.98225884227593    3.61309882080704    0.99478487441662
H         1.90840162824197    4.66135323489571    0.39836889747208
H         1.87766956867344    6.29641644923767    2.76507790815911
H         3.92241532139891    5.77423054380898    3.90902112906774
H         5.24432046785640    0.54779770295710    7.56893362429342
H         4.25730367384583   -3.20887346031367    6.69779227975548
H         3.43379729468074   -2.50048511890064    5.32858013436919
H         2.77739318116208   -2.07855243804377    9.55054541451613
H         3.47559487623242   -0.49978100219407    9.83041600266231
H         0.81724338937365   -0.95247644902401    7.04056998675534
H         1.54822699705862    0.45732433952392    6.27455546379488
H         5.31189828399204    6.45689495634992    5.70094154903853
H         2.97708314276539    7.41121733540582    5.30610188300271
H         5.64436664899304    9.07784130237700    7.23117233921458
H         6.14981721736520    4.93109034390952    9.22611175172200
H         7.80231567250104    6.20190055467076   10.47183173174627
H         9.80278565211525    7.10946060526205    9.33702121895125
H        10.11001099152280    6.70647091589284    6.91706022277858
H         8.46161661487090    5.44129346127806    5.66077839532119
H         9.89600270146632    3.47990428990924    2.56594346292137
H        11.39849619913137    2.28085332899737    4.07939431601516
H        10.60998682775524    1.59144577819891    6.29537534981303
H         6.30252593245132    3.91162999894524    3.20003727242820
H         6.94976188873293    6.02928272143231    4.19035382294924
H         8.52186328340373    4.53720556177937    1.19532449525873
H         7.20191997707898    2.28879890837206    7.61901199846946
H        10.12464033805425    2.11938953930535    8.48895243765894
H         7.62109821262275   -0.00971035594404    6.75633343636122
H         5.75222287204537    1.87754865245203    1.53463789643327
H         6.38471080947893   -1.07467329394659    1.22414082261034
H         8.38199661412511    0.92621231169407    2.37772875971006
H         6.57957533717945   -0.92209474359414    3.99212350407088
H         3.27619664883728   -0.83722827678429    3.75703092205597
H         1.18623389795066   -1.61586719558246    4.60680813678888
H        -0.76009344680149   -0.12568912074754    3.01066118661110
H         0.81593462217969    1.42760882653045    2.22769004070232
H         0.77684816807856    2.66788518607602    7.55779290360536
H        -0.92208971789315    4.31484536943994    7.83952473573156
H         0.19827758370619    6.41936897917605    6.52720908697766
H         1.08209770669817    5.13501758796916    4.67610523631140
H         2.85780528183818    2.51101148745951    1.83528442027089
H         1.15476762623962    4.23609390074095    1.93873895784931
H         2.91032153630096    6.57549646230634    1.36873699143621
H         4.76136052004176    5.58995088547435    2.34963506372329
H         5.36245352896219   -0.40422639918880    6.11661550944755
H         2.51281377243410   -3.24760834424829    6.61799324745835
H         4.50568937211864   -1.84765534563039    9.39995075098597
H         1.32207831916914    0.39933215655587    8.01622076927288

