55
CSD_code = NAHGEJ | q = 0 | S = 0 | Stoichiometry = C27H24Cl2SiZr | MND = 12
Zr        9.88855362913411    7.05595696290054    6.08018989405750
Cl       11.65100152664657    5.57513350436285    6.50589694882954
Cl        9.53524321097470    7.46300694975001    8.33643823925966
Si        8.61869582996668    7.94657863412866    3.15912391547669
C         8.24676770465172    6.53642397016697    4.36440275184788
C         9.04468498895537    5.35664773976435    4.42457507413907
H         9.63218800752320    4.96765596336761    3.59939587308900
C         8.85205933776636    4.69279702072236    5.64358752807662
H         9.25766624833089    3.72733362629930    5.91657465573437
C         7.93194438053200    5.45647147932643    6.41496780701025
C         7.56730791467767    6.62269306800611    5.63032867349510
C         9.96356216780596    8.67601975625261    4.27246588309388
C        11.27759704595122    8.12308589380890    4.37109577103309
H        11.77363505737999    7.55751556566697    3.58654786039771
C        11.89393721406235    8.52229472397218    5.57284000362644
C        10.96488376080489    9.35468353892909    6.27318463660698
C         9.75352038751180    9.42374488456414    5.48152926626106
C         6.66577792975498    7.55715250221837    6.18241517408094
H         6.34088731599207    8.41253146625898    5.60565568020023
C         6.14867609602139    7.33205775419530    7.43466992698185
H         5.45543491807129    8.04191015969926    7.86087146626594
C         6.48727407111556    6.18793206109821    8.17821436393355
H         6.04467702786095    6.05046577116391    9.15285846210308
C         7.36129398064993    5.25246927745412    7.68562966936463
H         7.61215628835911    4.36722163117035    8.25493607335117
C         8.67177119749009   10.19248219003712    5.95638210296097
H         7.77965110258987   10.30590042816181    5.35582131600566
C         8.79518150980905   10.85395395107158    7.15319833486970
H         7.97218269839322   11.44750605148421    7.52270026234561
C         9.98077275986183   10.79875522772419    7.90668996739800
H        10.03526074028951   11.35074526014750    8.83242979991743
C        11.06230978190490   10.07040683069518    7.48106983505690
H        11.98093608990809   10.05136650665907    8.05106243257950
C        13.31783675206103    8.28409588513891    5.99313629655177
H        13.78345855399066    7.56851844925037    5.30680918023067
H        13.34717646677956    7.84871211870536    6.99842799720509
C        14.09694503869593    9.57816671567761    5.98265275123066
C        14.89240268654428    9.94263582512956    7.05983731478422
H        14.96142281165280    9.28975103052342    7.91891457514584
C        15.59940144263655   11.13271985345208    7.04209978696673
H        16.21496348509727   11.40433444990158    7.88731937862666
C        15.51574027802605   11.97404337972080    5.94648769209464
H        16.06467838226796   12.90406579448922    5.93334194694986
C        14.72279638484333   11.61860591734369    4.86805698118878
H        14.65208659862697   12.27204214987153    4.01035945532847
C        14.01853954558008   10.42895782464037    4.88653262630114
H        13.39614249023948   10.15688612466644    4.04603985235059
C         9.38415306250443    7.27223884928097    1.54697685503262
H         8.66039942187501    6.67771356168431    1.00008963722103
H        10.25333916374947    6.64834500858190    1.72777006755826
H         9.69238499097878    8.08682170355204    0.90060142362876
C         7.17485644351704    9.10502920522186    2.70872612794231
H         6.57905824159062    8.66184099362967    1.91801425222600
H         7.55136604957407   10.05508394343106    2.34399872862445
H         6.50975978842092    9.30809086487593    3.53965742336190

