88
CSD_code = NAHMOZ | q = 0 | S = 0 | Stoichiometry = C49H34Cl2P2Pd | MND = 4
Pd        5.09765527559963    7.45965169183011    2.40656545265137
P         2.89984902551142    7.95656142878238    2.21430226979560
P         5.11521160675402    6.79742467178879    4.55341128395431
Cl        7.32277419267553    7.04759751351800    2.32172451917821
Cl        5.03077339987568    7.70140785651172    0.14338239898716
C         1.89849811485782    8.35238572499386    3.69432740780215
C         1.55408912816889    9.68230977642903    3.95772599005984
H         1.76353162153582   10.43601059351317    3.21244252058734
C         0.94612345134372   10.06127625960576    5.14088279470732
H         0.67417600390848   11.09584041165959    5.28976406273790
C         0.71517813364488    9.13315169715733    6.14100347579828
H         0.27787475800949    9.42784285187681    7.08256369769253
C         1.06235643771856    7.81420395961634    5.90622209417575
C         1.62084510208843    7.41039913928226    4.67890928580481
C         1.70912165425715    5.90761663899541    4.65401709604060
C         1.48222218854589    5.54928012475487    6.11091272187322
C         1.00098833551595    6.66979571227382    6.79793188812205
C         0.61841473148640    6.56460408488643    8.12467083647060
H         0.23860027487269    7.42188814861466    8.65974560894163
C         0.73943660235956    5.33551336202866    8.75207178337496
H         0.45002651575343    5.23343624121929    9.78768763753504
C         1.22934464871566    4.23206454849616    8.06905613201608
H         1.32150058260770    3.28581180419801    8.58116340951708
C         1.59336260105338    4.32527024364721    6.73252463600151
H         1.95748545179980    3.46092117256762    6.19599633558721
C         2.82609702852758    5.13486511239020    4.00488162985050
C         4.20253033509376    5.29408460333420    4.07683313095454
C         5.01248509375725    4.39309202273269    3.35851423983989
H         6.08689975624220    4.55079608201398    3.35094180660831
C         4.47417565590689    3.31990657580772    2.67453878967577
H         5.12846071316450    2.63768171296218    2.15272570121034
C         3.09983944388161    3.14236875911692    2.62330906830156
H         2.66720519658164    2.32526467352599    2.06680958536074
C         2.28878921511761    4.05833535319271    3.26885620133866
C         0.84161665525917    4.16823112630633    3.25831453668545
C         0.47798912305645    5.30348421820637    3.98847941864195
C        -0.84120311976562    5.68112414574933    4.10737134249451
H        -1.12039733597137    6.55493422418494    4.67842805524389
C        -1.80543444037771    4.91140578880348    3.47218329881738
H        -2.84486556552267    5.19515187263653    3.54496966648108
C        -1.45230940907083    3.77885119054212    2.75396929382164
H        -2.22201877819123    3.18986562522556    2.27753242493306
C        -0.12672557253863    3.39602016614669    2.63862011460159
H         0.14561764979847    2.51489173361078    2.07799789830150
C         1.84496728926400    6.79769715071011    1.30630268480572
C         2.43542736287602    5.72408413211166    0.64986290813720
H         3.51279938794418    5.59281486482158    0.70536463075868
C         1.65097820476490    4.84615306784226   -0.07506863809645
H         2.11026074841061    4.01736889491637   -0.59286070716743
C         0.28015808061701    5.03305805711029   -0.13998300121785
H        -0.33149195978501    4.35223452816324   -0.71348734638995
C        -0.31322106151553    6.08758217346420    0.53548548794946
H        -1.38419576302510    6.22193121282437    0.49545993721038
C         0.46347417270241    6.96614977437131    1.26682106067914
H         0.00363738530118    7.77868821810142    1.81405979743801
C         2.87636532136541    9.53043407742813    1.29993013880355
C         3.95395682411982   10.38287785094296    1.54915500876061
H         4.74852289394495   10.06204265520768    2.23736740511297
C         4.04030677706952   11.59947161404780    0.90262604846816
H         4.87859580053814   12.25415798627118    1.08970715632367
C         3.05758426243524   11.96977952045384   -0.00414919594480
H         3.13061534387931   12.91571849037461   -0.51995956472741
C         1.99633123938216   11.12040355261856   -0.26396756144070
H         1.24211004959153   11.40285169078460   -0.98390236392508
C         1.89963631333804    9.90093611521456    0.38635085561021
H         1.07940563110598    9.23238569237734    0.16794003043050
C         4.34235827463951    7.67739043535963    5.94447842692936
C         4.21669471375182    9.05744677416523    5.83267490682724
H         4.46389891821874    9.53222527588740    4.88679573474870
C         3.78147546876620    9.80189805076971    6.91230596704166
H         3.67951719685659   10.87346134826211    6.82582230715755
C         3.48733739959644    9.16891837994817    8.10932449331396
H         3.15409821191441    9.74956895890307    8.95676143081738
C         3.63155009050840    7.79588106074874    8.22846669172076
H         3.41178019909073    7.30751731439396    9.16621008264301
C         4.06433774302235    7.04663590914183    7.15059621423090
H         4.18798931874873    5.97698549945097    7.24126259664243
C         6.58496114337114    6.19312817131715    5.43575058840466
C         6.63442006227721    4.95263848998395    6.06081984742198
H         5.79840926716023    4.27007019220605    5.98399941057826
C         7.76694020050319    4.58772654241195    6.76676226587371
H         7.81080072887081    3.61997092010650    7.24527029358778
C         8.84302591062954    5.45515464331638    6.85634684630412
H         9.72737904904167    5.16027141024284    7.40175236124974
C         8.78882285525369    6.69717469725726    6.24406340915882
H         9.62963620513781    7.37111411044903    6.31167288563221
C         7.66045460650159    7.06915261586149    5.53855497446145
H         7.60969664821492    8.02692723493212    5.03727195109749

