48
CSD_code = NAHNAN | q = 0 | S = 0 | Stoichiometry = C22H17N5O3Ru | MND = 6
Ru       29.21516677220168    4.99727216702233    8.63874083477047
O        28.33660546203314    6.24260332062226    9.97693786552960
O        28.93467254942756    6.46624777147154    7.18835086345360
O        26.22891916306680    2.19965916667974    9.29129325141670
N        30.85316964937373    6.04896911320734    9.13308664570745
N        30.08476563172277    4.09273205278498    7.05470567081123
N        27.46786225792852    3.97927080969292    8.35987138389813
H        26.67565083938276    4.24892268720183    7.78373450185007
N        29.43570710980944    3.59076462255012    9.89046021496934
H        30.22061169594658    3.40858337532918   10.52262446388294
N        28.57094350005602    0.72617495578313   11.61787825689272
C        30.53624979462921    7.07571978610331    9.95790983944871
C        29.16596962974461    7.14437471003204   10.38062190659819
C        28.80904209813056    8.19417593896801   11.23173464163552
H        27.78460960729800    8.26501629366633   11.56245984321179
C        29.75261580492446    9.12864485186790   11.64275898333428
H        29.43732573938422    9.92672400347173   12.29961730501289
C        31.06726144187035    9.06844402930692   11.23898572167997
H        31.78325516998567    9.80597866803251   11.56696702302816
C        31.48877951694648    8.03789043557370   10.38402780353400
C        32.80777045817028    7.88523547157586    9.90542844355252
H        33.56498760456778    8.59726100456646   10.19894270145940
C        33.10300411287553    6.83721285128327    9.07498205105097
H        34.10025438079505    6.69110221255345    8.69019591365188
C        32.09545494900077    5.93494305021958    8.70905269336872
H        32.32315071923718    5.10377637873024    8.05293534801227
C        30.13485583403189    4.88011608822688    5.95286168995232
C        29.51119400710235    6.16871405156681    6.07981749803529
C        29.55537367638004    7.01297930943397    4.96282523342648
H        29.09575133091922    7.98629054799339    5.03454877966604
C        30.17050399408173    6.60346541318253    3.78886676715462
H        30.18524711764448    7.28311504283270    2.94862609952589
C        30.75369127822344    5.36037348550697    3.65662186206368
H        31.21730755428052    5.06130971084651    2.72951036545858
C        30.74255860902140    4.46789579240651    4.73592751206498
C        31.29498037439577    3.16770080818667    4.71054046702334
H        31.77076451764301    2.81078027576515    3.80923009675962
C        31.21083602533906    2.38138216944224    5.82819691717549
H        31.61319509260444    1.38039344914513    5.83960700579609
C        30.59784375866197    2.87602528560560    6.98711606225271
H        30.53833127236840    2.26074952641611    7.87685323354207
C        25.09232885366230    2.49923256188047    8.50185414474835
H        24.34248066372466    1.76339681167657    8.78381236900808
H        25.31377831279475    2.40367492022148    7.43438361969029
H        24.71612990404278    3.50398987871016    8.71564475613449
C        27.30778808961398    2.98674910033608    9.17191983679914
C        28.43955223845360    2.71249645186800   10.02231456011422
C        28.48500183650078    1.61846959045288   10.89621695184646

