57
CSD_code = NAHNER | q = 0 | S = 0 | Stoichiometry = C25H22N4O5Ru | MND = 6
Ru       11.97678516202391    2.63494036127773    3.43538277370791
O        11.33740339410089    3.35773356692051    1.63915953583941
O        10.77172151485757    4.05874998067448    4.34675688169609
O        10.27533631317030   -1.07629353630097    2.66052281990299
O        12.97542604085601   -2.01085203279590    1.36882002486700
O        14.34181418788522   -0.21640824778529    1.44972621478559
N        13.25375855501922    4.18233577686539    3.29799787121636
N        12.41382644506916    2.25656419004399    5.36399257559664
N        10.58641230465346    1.12902136655654    3.43427198610869
H         9.61292244350408    1.19026956895471    3.71941580810703
N        12.97955258016735    1.23525126075326    2.60098644943783
C        12.93384828775358    4.97634605691359    2.24663963981958
C        11.89286298844652    4.49208256197205    1.38355621017715
C        11.55223048047077    5.28558587946747    0.28307056115020
H        10.77348255149698    4.94097874424870   -0.37916763751874
C        12.19354484338734    6.49597122283184    0.05205736286482
H        11.89845162729666    7.08238467910733   -0.80627536051611
C        13.18411924648388    6.97019154424334    0.88301353777376
H        13.66302722545071    7.91779981578651    0.69145479768398
C        13.57387922666264    6.22052336673789    2.00289029867696
C        14.56508489029556    6.62116287619181    2.92516327055733
H        15.07327119937310    7.56332356532480    2.78294601304245
C        14.85678328694735    5.81092958326027    3.98938434386988
H        15.60067051226011    6.08985055523794    4.71921163407302
C        14.17915003505543    4.59426154156748    4.14340120996357
H        14.40797125849812    3.95217715370580    4.98578903865132
C        11.86673564216629    3.16103262656658    6.21268535278387
C        10.99937453084559    4.13466495828560    5.60943085181889
C        10.42682081083888    5.09235079867274    6.45594267138519
H         9.77242683021686    5.83476583168239    6.02662779526299
C        10.68928465826154    5.08062940763623    7.81827382864232
H        10.23240439988463    5.83818681714359    8.43912681680247
C        11.49992291773941    4.13146586462208    8.40520830397227
H        11.67600953963003    4.13464852405314    9.46957757056426
C        12.09726533326786    3.14126554413236    7.61475538797195
C        12.91938167502020    2.10364217640508    8.10864207512599
H        13.13058106071835    2.05133334510351    9.16632930563648
C        13.42160492196375    1.17390221513917    7.23763984858542
H        14.03493086026994    0.35692211205107    7.58462452925361
C        13.14760945596527    1.27954783098707    5.86759688942197
H        13.54414236549713    0.55086452388597    5.17192974131625
C         8.91236681242879   -1.08685293321955    3.04336480771226
H         8.53946005978603   -2.06726374334407    2.75522297899357
H         8.34615217216872   -0.31205274332183    2.51733496254681
H         8.80131421252521   -0.95777379493894    4.12483212233034
C        10.98077633676933    0.03682824367562    2.86536775533126
C        12.33883163020975    0.08158900457915    2.41437366426119
C        13.17663545772835   -0.87612380088363    1.69703218281587
C        14.26698581887166    1.11956873716517    1.94556753358410
C        14.32942536457048    2.08755119053000    0.75722210212875
H        13.39788592998997    2.03841893374185    0.19581797798874
H        15.15191618841283    1.79437359896594    0.11067406862195
H        14.48207036474698    3.10447307076985    1.10629292163926
C        15.43035075849137    1.34466693556163    2.91253462353054
H        15.44103755750017    0.56193632964033    3.66719369470626
H        15.32641224202933    2.31340966333240    3.39107960464377
H        16.36434749029904    1.30594732961445    2.35963016907518

