72
CSD_code = NAHNOB | q = 0 | S = 0 | Stoichiometry = C12H48B4N5ScSi2 | MND = 7
Sc       -2.21694303652574    4.16958546364997    6.77648037076923
Si       -2.09600591593832    2.52815868511079    9.65106803082800
H        -0.67959593902770    2.94495075213879    9.36402461320445
Si       -4.61960039090160    2.30727706889860    8.09066593636958
H        -5.26757014238424    3.07111164781110    6.96850423455588
N        -0.38097822005350    6.78594674474181    8.16308235055929
N        -2.94443994651899    6.25305298231289    7.46787540549819
N        -3.07459582057060    3.05734781287712    3.58618463456488
N        -1.13071938807142    2.63766675036992    5.42622067215431
N        -3.02480317234513    2.92877556625105    8.25995914942796
B         0.03015292504499    5.74141018868895    7.03835062051907
H        -0.44665201419362    4.60158421039060    7.38916450171272
H         1.21598375779714    5.66738837725752    6.97898543850891
H        -0.42524661366250    6.07687349228897    5.97524303833473
B        -1.93109239781113    6.68580987849119    8.62208255595098
H        -1.98576218711744    5.81947991585832    9.44604231011126
H        -2.24871148421465    7.76271822022473    9.04290183293715
B        -3.22621054813974    4.50253655091274    4.22934224144284
H        -1.79209509636738    1.17760681657634    3.79074704277387
H        -3.07995786860690    1.54436391967598    5.27892026811038
B        -2.27646936811134    1.99925393710506    4.51741298950077
H        -2.17508325047031    5.08782717533646    4.18578618957681
H        -3.59427874892301    4.33346459908350    5.44875759401465
H        -4.06765071412924    5.11032935534358    3.64798888657851
C         0.42567768691608    6.52233727887305    9.36173021373563
H         1.48508477219964    6.67181488761086    9.14429359848354
H         0.27538631826792    5.49573609796521    9.68668481340643
H         0.12882864712126    7.19188219857533   10.17041141456923
C        -0.03293256077837    8.13887714265822    7.71599725045312
H        -0.22142426256476    8.86121224812411    8.51177539284831
H        -0.62332570070644    8.41598285243634    6.84887849868637
H         1.02264427224336    8.18296212479235    7.43998922206944
C        -3.12854501448438    7.31154229426792    6.46696826825375
H        -3.93563254731078    7.05288295583965    5.77341512728131
H        -2.22285742490455    7.45194316582405    5.88020441574108
H        -3.38371483208228    8.26363867552482    6.95596445761213
C        -4.25584479500971    6.07825904213837    8.11654407882756
H        -4.57137256394129    7.01618553063929    8.59934764686954
H        -4.19573104942414    5.30169851310072    8.88015366474713
H        -5.01811389119900    5.79613173165922    7.38073383660615
C        -4.41562710886253    2.49667525660950    3.37571398983987
H        -4.97683938063997    3.11414396048691    2.67165846828664
H        -4.95254935525709    2.46503927440323    4.32058546235157
H        -4.34216121325520    1.48202173374626    2.98139059759499
C        -2.46249768671659    3.18230189064942    2.25913799549155
H        -2.43568318072368    2.21176686162159    1.76121321917909
H        -1.44784173673140    3.55752624345966    2.34256705479016
H        -3.03630785370167    3.87979284255542    1.64544820651154
C         0.02457195590097    3.07664557720237    4.63351510734516
H         0.85261908560175    3.37242302824478    5.28634170612141
H        -0.23214004864833    3.93624155493650    4.01754640617730
H         0.37304685800689    2.26416824040861    3.97829658574093
C        -0.63782061411910    1.55052675456223    6.29009997141569
H        -0.25076965445163    0.72138039655801    5.67758931010045
H        -1.44865724252345    1.16910403533553    6.91211714618962
H         0.17149527391928    1.90669779783881    6.93837811699430
C        -2.01945723719864    0.66895331988714   10.06981978225669
H        -2.96951341526406    0.31923421496632   10.46025036167428
H        -1.26474558726016    0.47052428084043   10.82415543082292
H        -1.78044988413694    0.06792612004827    9.19858881056178
C        -2.61796249051244    3.38940410350284   11.27328840493363
H        -2.69361665427715    4.46504200766106   11.15193320505396
H        -1.89399100075076    3.19690482106988   12.05920944095685
H        -3.58063158526488    3.03021923285946   11.62108369255801
C        -4.74509170730659    0.45240839051138    7.65521254363488
H        -4.12306003835688    0.19540979180459    6.80405537897492
H        -5.76802824463708    0.18534525609629    7.40790166806595
H        -4.43677650263404   -0.17200168738057    8.48695250852278
C        -5.75164538808659    2.54538932558444    9.60719387940824
H        -5.46294002774382    1.88178598891096   10.41564299390175
H        -6.78532439505899    2.32594733168609    9.35967721587776
H        -5.71230541240925    3.56154520191023    9.98555253046998

