82
CSD_code = NAHPUH | q = 1 | S = 0 | Stoichiometry = C38H41P2Ru(1+) | MND = 9
Ru       19.18790209951523    0.25838506498790   12.59537048629509
P        18.44110009169060   -1.62841219351003   11.45475433517844
P        20.00121362471859    1.26893902268617   10.66986613725654
C        18.35099584868638   -3.31286881871893   12.12550529942087
C        19.51213836456578   -4.08122221352742   12.13074062221737
C        19.48206206934655   -5.37557806223050   12.61705330438601
C        18.29461798054848   -5.90591135068495   13.09552025343200
C        17.13442000711250   -5.14758075359360   13.07584418801084
C        17.15547918005661   -3.85327797101740   12.58860339809723
C        17.93810854109530   -1.89080285851764    9.72364284675081
C        16.60208142015210   -1.79804605682472    9.34778541798856
C        16.24658034080143   -2.04189842203501    8.03340055099231
C        17.21388439635815   -2.38105400098094    7.10043879177670
C        18.54454982281081   -2.47833819501943    7.47733892405651
C        18.91052895095989   -2.23435670167177    8.78821094988484
C        17.20177065094524   -0.64510970272917   12.29021442141127
C        17.07933061779223    0.68211892420682   11.87862084691615
C        21.39222958807177    0.38859292718756    9.88473673295604
C        21.92578184253147    0.84108581816610    8.68018093173212
C        22.95859293882316    0.14505213619820    8.07997819090930
C        23.46107359693139   -1.00521413437985    8.66939590634658
C        22.92666553796260   -1.46386613983805    9.86221848272473
C        21.89366704540797   -0.76890411778775   10.46621866759403
C        20.58003840023350    2.97992118183493   10.85725090179797
C        21.90313861129018    3.37522485370416   10.69715838024808
C        22.24834923080796    4.70549417989194   10.86982094466667
C        21.28254243279636    5.64257109182684   11.19800405661723
C        19.96350111325530    5.25016344537609   11.36897412482268
C        19.61452474547890    3.92249401984843   11.20922629724376
C        18.94133213911261    1.38630263234474    9.19495860353734
C        18.59797435044804    2.48548381311245    8.54205198386314
C        20.99802676402263    0.72043721674095   13.82536570589444
C        20.54830775618615   -0.58134459178817   14.20540568024483
C        19.21355728608227   -0.46387998845377   14.70448460697079
C        18.85918992798194    0.92824381816920   14.69643169439255
C        19.94920797036010    1.66748057355930   14.15470030906305
C        22.40970213241947    1.09701628755495   13.49674683260393
C        21.38319647655005   -1.81816915919962   14.29185288875261
C        18.48651391006583   -1.55408487366456   15.43079439658399
C        17.65121732710908    1.52868440415052   15.33970490467818
C        20.13314338722193    3.14593062683955   14.29583072703957
H        20.43139768963848   -3.65823141299971   11.74723110064451
H        20.38273128221168   -5.97063080603785   12.62419669563381
H        18.27112609559418   -6.91446071959664   13.47826443876592
H        16.20841227918356   -5.56821230996296   13.43759422154879
H        16.24770560714877   -3.26723166476479   12.56114921513298
H        15.85298328558029   -1.53240802355854   10.08090668178986
H        15.21120000614844   -1.96976977351585    7.73678661056795
H        16.92973815308177   -2.57101290832133    6.07695294687332
H        19.29640855132940   -2.74297473367764    6.74961710097667
H        19.94743585557790   -2.29558655431915    9.09184598410056
H        16.74088019174913   -1.00814679921407   13.20688490725515
H        16.43277325893420    1.33772689607480   12.45519072724315
H        17.11362556720869    0.92134655239927   10.81742816598722
H        21.52709309225954    1.73431926539757    8.21965152873584
H        23.37213622059062    0.49771700157506    7.14740608992494
H        24.26612477644086   -1.54584250868858    8.19592545025992
H        23.31471966207000   -2.36370991539826   10.31701454809390
H        21.45327190768205   -1.12127097038353   11.39279840127004
H        22.66023223519685    2.65005932196011   10.43370532503246
H        23.27626454802401    5.01063760430277   10.74436608597196
H        21.55776851233941    6.67815824483541   11.32468588635176
H        19.21204669965483    5.98026075061189   11.62958091886919
H        18.59301580756583    3.59472184216707   11.35873175392517
H        18.61748169209979    0.41146616561042    8.84033633950477
H        17.98458209003549    2.43973566710641    7.65635006831060
H        18.90680260905735    3.46868025436389    8.85780829069197
H        22.44410984138593    1.98925717957386   12.87405673764422
H        22.94526517983098    1.30910030910827   14.42395846766504
H        22.93109186980510    0.29488401256443   12.97894964509353
H        22.22448174885630   -1.78709629957974   13.60341024761418
H        21.78333826544241   -1.89860590681202   15.30445569198241
H        20.79447483276377   -2.71264751084708   14.09477063059498
H        18.54343247338126   -2.50254630305510   14.89648146605044
H        18.94624225065650   -1.69555183153344   16.41063608697566
H        17.43940122256653   -1.30464342204314   15.58869521259977
H        16.79502200069356    0.85747490001131   15.30607384993502
H        17.87265387532436    1.73745000084727   16.38803218515110
H        17.37782878068758    2.46799627661408   14.86336553259347
H        19.22024430428685    3.68920465575733   14.06258393243218
H        20.40110045684965    3.36767959648055   15.33093589936227
H        20.92781670271760    3.51480214473325   13.65328220549144

