95
CSD_code = NAHQAP | q = 0 | S = 0 | Stoichiometry = C46H39N5O4Zn | MND = 4
C         9.97234239291747    5.42953853179588   -0.07916659306748
H         9.92717616388432    6.19492687999483    0.70383732482866
C        10.85293176781378    5.89280369270095   -1.26032901862789
H        11.25056242406438    6.89985309928514   -1.10778539887778
H        11.67819228763581    5.20625471672261   -1.47113261063258
C         8.75161352287946    5.56443495235789   -1.95935220587311
C         7.71116799386200    5.50665976551226   -2.90501630035846
C         6.40815363413641    5.07931535019743   -2.59666002861421
C         4.29615826862312    4.50533287920103   -3.06901319535368
H         4.13032760826540    3.52333106825039   -3.52416928276044
H         3.46529049235608    5.16450875176143   -3.33047992137666
C         4.54015340264077    4.39665958954381   -1.55031553806737
H         4.34575255930461    3.38347576434777   -1.18640859990498
C         6.19334517133195    7.48606888893433    1.31333011631223
H         5.32071889641424    7.60358280260119    0.66139636561558
C         5.87782945557894    7.97249084663063    2.74191821332025
H         6.52490592450120    8.79045348630164    3.07105305177494
H         4.83275087649028    8.28325258525601    2.84146993607654
C         6.41544555550228    5.78680846040137    2.78628523943700
C         6.65291913269157    4.55270122606959    3.38575567010351
C         6.97102576548929    3.40985371392983    2.65323089618582
C         7.43865032039551    1.22581878753470    2.41368504550315
H         6.74511575461332    0.39360152775238    2.56303694212587
H         8.46247186624665    0.88285373858503    2.59609152966418
C         7.29373861604602    1.88566978115992    1.02766554640029
H         8.19075250275301    1.74180002036995    0.41641601128291
C        10.36438517242718    4.11199403062225    0.54048171417792
C        10.42229378970165    3.97993993415516    1.92130786223723
H        10.21211847466661    4.83484391224777    2.54732585158451
C        10.74153406022100    2.76289653528335    2.49679229224774
H        10.78363897874648    2.67146084044367    3.57212642867706
C        11.00279200345350    1.66376582759316    1.69597709882466
H        11.25868381090416    0.71383833827053    2.14270653238613
C        10.93181719275782    1.78405682866630    0.31784854042186
H        11.12551381350401    0.92648440061739   -0.31023658856201
C        10.60993597161373    3.00089317898628   -0.25733807735254
H        10.54051133287449    3.08512342259825   -1.33280355669215
C         7.99173615837997    5.89286145923894   -4.22522302234823
C         3.77422907962918    5.38167706601630   -0.69999528652196
C         3.58812937468488    6.69546349239946   -1.11326620378734
H         3.97167865269882    7.02316910869604   -2.06928865377791
C         2.91976767513172    7.59741853029537   -0.30232268470700
H         2.77709554816345    8.61535489765284   -0.63534719467028
C         2.44245060723315    7.19826268561661    0.93484736265988
H         1.92018146559486    7.90231396576096    1.56599147454266
C         2.64079239879232    5.89538427711811    1.36011380235276
H         2.27252734004990    5.58380700452188    2.32665562269033
C         3.30417114415190    4.99223637321923    0.54804907703126
H         3.45937911575388    3.97508292815443    0.87733082301361
C         7.38545459139170    8.11961423674061    0.63897098522417
C         7.33928877477135    8.37429149125141   -0.72629626893142
H         6.43152826814195    8.16548325184485   -1.27372619226692
C         8.44151077052610    8.88640913586673   -1.38708985061694
H         8.39653211263632    9.06763467412754   -2.45057551592832
C         9.60309418037202    9.15937899620536   -0.68435391259310
H        10.46151063835223    9.56907466180751   -1.19638902455454
C         9.66096781841294    8.90258122926517    0.67534828304378
H        10.56850676817127    9.10598751522881    1.22636968501095
C         8.56197820111280    8.37518945679647    1.33218738266039
H         8.62592445277201    8.15436894889630    2.38857546331076
C         6.39373787063792    4.36442015905222    4.86360913642298
H         6.19040140152877    5.33921530868581    5.31039736835708
H         7.27133486224558    3.93455158340562    5.35175540010325
C         5.21204747088039    3.45201480509336    5.07408041593749
C         5.23454903759061    2.44883902500908    6.03218139600607
H         6.11126027710932    2.32321449379000    6.65139723421814
C         4.15089280137698    1.60280259798444    6.19568982143614
H         4.18480540639327    0.82383842230098    6.94400294724534
C         3.02858642233615    1.74681071125433    5.39914450000168
H         2.18537810080759    1.08248362578499    5.52145686755227
C         2.99429596321617    2.74777297123770    4.44223110634766
H         2.12050437989231    2.86613289089029    3.81591160670669
C         4.07659367869780    3.59341076660831    4.28446441073911
H         4.05554342074812    4.36964199796490    3.53270884383542
C         6.07562055275645    1.42909583067065    0.26216480667588
C         6.17143036939664    1.06777713632672   -1.07441417661101
H         7.13513718988042    1.08400240524414   -1.56247660105699
C         5.04226868739416    0.68876303515878   -1.78077866641560
H         5.12752332418926    0.40679749566441   -2.82004044688770
C         3.80617028740623    0.67071776499543   -1.15670963940338
H         2.92495551546213    0.37464551928677   -1.70653212720462
C         3.70241348390067    1.03801163043014    0.17563683231125
H         2.73930446549794    1.02927795924351    0.66501794277159
C         4.82989342241188    1.41909709531164    0.88132567880156
H         4.74172661046067    1.71515601333852    1.91781397740496
N         8.65722776904797    5.29832524131645   -0.68794510504135
N         5.96467300023490    4.68653374639836   -1.43271632997724
N         6.45921863738447    6.06751151888137    1.50392462877052
N         7.13611947289044    3.29509191312349    1.35439017148919
N         8.21936564791850    6.22208764258908   -5.30192788682325
O         9.98087057415426    5.91747032550605   -2.37959099479196
O         5.49840458043002    5.04918914245501   -3.59110474745364
O         6.09714918929703    6.84681055057104    3.57424891834005
O         7.12799123331957    2.25138703914973    3.33790601184526
Zn        7.01045279887814    4.80000809189572    0.18697925443639

