36
CSD_code = NAJKOY | q = 0 | S = 0 | Stoichiometry = C12H19ClN2OPt | MND = 4
Pt        3.45980028807206    2.26746813734476    0.07768629031343
Cl        4.09742206296180   -0.00489523832772   -0.09624401326401
N         1.75296402666791    2.01150138393105    1.25981609888567
N         5.00866226691416    3.09733117423561   -1.06063975525542
O         1.81029069459859    8.05896086336671    0.55735802189235
H         2.34546213000277    8.61986905051830   -0.01585793320488
C         2.94094945227985    4.12659107388498    0.21937764657457
C         1.91052549503886    4.47470615424027    1.08113739726982
C         1.53276093758330    5.80195662779047    1.18258798228083
H         0.73667295661404    6.12963614231790    1.83316370399486
C         2.20883370874350    6.75757909235034    0.42365531694395
C         3.24747455662644    6.40493182165513   -0.43561190681139
H         3.75119329779999    7.17162051057422   -1.01234859896400
C         3.61123286994444    5.07100573910575   -0.54149299575036
C         1.35689117116076    3.31525918708301    1.87569505224764
H         0.26523512250308    3.36137280583355    1.97428969164494
H         1.78430678648294    3.35927129818085    2.88262416017398
C         0.73492812201707    1.59809889838904    0.28886605699397
H        -0.22056972392363    1.39435500148805    0.78853634191742
H         1.06821216607388    0.69147665290457   -0.21975504295657
H         0.58947967974410    2.38974781928829   -0.44815647138243
C         1.89054127817542    0.98165142835461    2.28877400243979
H         2.66944901163640    1.26886982004605    2.99574776754589
H         2.18832875726578    0.04480279485960    1.81725201423323
H         0.94755331950158    0.83194833085823    2.82806172027795
C         4.64819883887573    4.48811400325290   -1.47293124983949
H         4.21507433453503    4.44229961855974   -2.47767686159867
H         5.55522673030773    5.10378079356478   -1.52825514479179
C         5.38548699300597    2.30006611873514   -2.22698617995456
H         5.63780028635395    1.29071206406690   -1.90132046919988
H         6.24599355565881    2.73897688741236   -2.74625597889355
H         4.54273748469414    2.23368906340365   -2.91575109318375
C         6.12932070362021    3.14054465791122   -0.11605599771799
H         5.87139112012493    3.78183179539143    0.72853742701240
H         7.03288750730025    3.53202279471439   -0.60057506999664
H         6.33268201103854    2.13214563271388    0.24904807012303

