38
CSD_code = NAJLUG | q = 1 | S = 0 | Stoichiometry = C18H16NO2Ru(1+) | MND = 10
Ru        0.27249804441488    1.31085437559781    7.60919128949280
O         0.02872840081813   -0.64265927283174    8.18488509627288
O        -0.22554376837441   -2.73323158690147    7.50438426714962
N         0.18984152695016    0.29152843462714    5.74851139578892
C         1.70617334501719    1.52298431546741    9.27178573375777
C         0.01367511001138   -1.01270899823107    5.86971094508085
C         0.34486326942900    0.82820629389280    4.50645958355983
C         0.28412542721388   -0.01053479892808    3.35056501578275
C         1.63163998213496    3.19811840627795    7.69681265377759
C        -1.42044764963544    2.49188887655769    6.81501524645866
C        -1.90374757335416    1.41713787877174    7.59196132544759
C        -1.50300155851041    1.41683617311560    8.93519794125631
C         0.57431578800751    2.20546207499842    4.31723513373249
C        -0.05166272970471   -1.89712863162416    4.78661074325737
C         0.72797425362666    2.72701843435374    3.06009404956049
C         0.07233740856735   -1.39307459357060    3.52156315013676
C         0.44338550906406    0.56337341908738    2.07162579235656
C         1.23402284292271    2.83474630638620    9.01165166352963
C         2.39318188714965    1.06658664026881    8.11208954098183
C         0.66015413616184    1.90482600030822    1.92576361375561
C        -0.07971532536940   -1.55618636334888    7.29302379123316
C         2.34674861413940    2.10904759265277    7.14132487104721
H         0.39272900092817   -0.08606467453043    1.21146325723305
H         0.78213839542777    2.33708655077862    0.94549240782561
H         0.90511968686602    3.78423952443030    2.93801840468769
H         0.62867384962927    2.85507937935455    5.17745883103881
H         0.01862558337206   -2.03341969626114    2.65441223410761
H        -0.19913364120638   -2.94342479617922    5.00519486172180
H         2.97970182436291    0.15897330068196    8.04000591559054
H         1.65411138492307    1.00179857311240   10.21633121293501
H         0.79056341921357    3.50267580337537    9.73723977933626
H         1.53215806347193    4.18150158034145    7.25861322956848
H         2.88642441211739    2.11606876281027    6.20367540150131
H        -2.46155746549516    0.58654803267834    7.15338887468040
H        -1.35482183229806    3.47243801951097    7.28605036950019
H        -1.69546885148975    2.52735023184802    5.76571484459431
H        -1.73116923708492    0.55424828912132    9.55155880537761
H        -1.43364153341783    2.36151014199946    9.46631872688487

