50
CSD_code = NAJVID | q = 0 | S = 0 | Stoichiometry = C15H21MnNO9PSSi | MND = 7
Mn        3.36130562166682    2.26897036958710    1.62952874891925
C         2.49669171526955    1.29703614101105    0.40043018427609
C         4.88031500748237    1.34075425879381    1.51332368285759
C         2.94727657369109    1.43658347570896    3.15400571024034
O         1.91262516832485    0.72538894791250   -0.40883229098397
O         5.88439773195557    0.77156041581191    1.47043467058771
O         2.69707597818046    0.97582004038336    4.17521056673413
S         1.72863923196472    4.01178333502157    1.93978884329762
C         3.36107792085021    4.09284251650630    2.63315878356393
C         4.28523902713550    4.13232085979403    1.60328449176146
C         3.72104445893908    3.87128030272496    0.32608201966473
C         2.32764210162432    4.42799185101692    0.26923154367865
Si        3.56039605133581    4.39765976360479    4.48194990467033
O         1.99762899562099    4.06793930109193    4.86651892932077
O         4.74824289390305    3.29130364445023    4.73132162290926
O         4.01287602481921    5.98314700889698    4.51408176673035
C         1.43712097291494    4.16406728928642    6.13930207313661
C         2.52729684450103    3.94232639077121    7.19720242993699
C         5.15098845960189    2.80899485367740    5.97766691459324
C         4.96490032066938    3.90726797136683    7.03561667974281
C         4.46673837416842    6.62245234216711    5.66858875086005
C         3.76440656728562    6.03316763229651    6.89733901387318
N         3.73008793906234    4.59788364008709    6.73167543124574
P         2.25328484835433    6.25361669160544    0.06229847258298
O         2.68023947623708    6.33907335100270   -1.48683779751123
O         3.53736108704900    6.85405914566888    0.83119574989267
O         1.00832158344525    6.94465877558318    0.40938752129858
C         2.46216873396635    7.55653947791692   -2.18135039875646
C         3.36426477176952    7.76601060064016    1.90534659303565
H         5.34276913208864    4.29084344742624    1.78724195030448
H         4.32205290923703    4.01478196267430   -0.56912489738760
H         1.66711052421303    3.98043372121095   -0.47531562305279
H         0.65435792786678    3.40630667489381    6.22665554513603
H         0.97939574110370    5.15503519426879    6.25097967102224
H         2.73007610701691    2.87272261986357    7.26254556351263
H         2.19875045637409    4.30600479335221    8.17808768063888
H         6.19901656374037    2.50793813242380    5.90724233974672
H         4.54816589912781    1.92616056304333    6.22061208826459
H         4.97145426225709    3.48105601540163    8.04519571349987
H         5.78733243480303    4.61875992135329    6.94945129111367
H         4.25315273531972    7.69090003805939    5.57634772049518
H         5.55254451807838    6.48712403320941    5.74322738833371
H         4.27081032242881    6.34429005707119    7.81912577870742
H         2.73766209518607    6.40075880035472    6.91671426485901
H         2.35347101024303    7.30625587161634   -3.23622032401093
H         3.31152261948170    8.22932317680711   -2.04668311954920
H         1.55373634851576    8.04175859288672   -1.81729173947606
H         4.01650571671353    8.62118520280293    1.72398458570951
H         3.64116183611287    7.27238625553367    2.83706015648152
H         2.32479635830343    8.09707453136098    1.95201335349201

