70
CSD_code = NAJVAY | q = 0 | S = 0 | Stoichiometry = C31H32N3NiOPS | MND = 4
Ni        3.60377926590871    1.40988607547370    8.01380910518344
P         2.70221294783893    2.23906118161955    6.18991326276776
S         2.98710103224800   -2.77453780771425    9.04207610353637
N         4.45123251435606    0.75374766642947    9.55661007186873
N         2.88909558282214   -0.34883599269837    7.87233419674096
O         4.33673345244601    3.05759925296166    8.24264882208711
C         2.97443635698354    1.21340335656841    4.70258287690787
C         5.22993132015891    1.37074532488139   10.41173265533685
N         4.18100015577402   -0.55417058274742    9.77663000602424
C         0.90829955542893    2.56211981065247    6.21450441495072
C         0.16004734656392    1.98894032984380    7.23680404857993
C         3.32735136912577    3.86057851125441    5.65239158207801
C         5.59538499754462    2.75377223039391   10.26886165933166
C         0.28221283407112    3.37870081326021    5.27730208117910
C         2.09329363824363    1.09353423663138    3.63668448309191
C         2.01781413412845   -1.03507163532678    6.94408153153249
C         4.23052453030558    4.00805788292876    4.60753481405385
C        -1.08262590751318    3.58997188595196    5.35119426265373
C         5.12448667804419    3.51962817859893    9.16470652013878
C         4.17423123901199    0.50560834138568    4.68759597605212
C         3.38520834109575   -1.06638177080006    8.87235366793917
C         4.70816975934658    5.26528663449390    4.27916052481295
C         6.35196389263019    5.44382745655037    9.98581303975913
C        -1.20460712190222    2.20352579641866    7.30794722198221
C         3.40507671232383    6.23172563595636    6.04625848708271
C         2.42226634787887    0.28577949314478    2.56112484645958
C         2.92474221504242    4.97949992834955    6.37715678646687
C         4.29685805048865    6.37687494293598    4.99454698578898
C         3.62384032753600   -0.40268231223636    2.54312091791300
C         6.80430200832811    4.69932011300869   11.07456577196408
C        -1.82723606736233    2.99903012118149    6.36019623548472
C         5.53253540409587    4.86663378433880    9.05199427479160
C         4.50193175347263   -0.29494236994074    3.61047749981924
C         5.77063184257231    0.59667451391624   11.58339950589152
C         6.43301870008390    3.38466482877417   11.20533588031778
C         3.94697086725747   -3.17930027305058   10.54521671478451
C         3.81064452946419   -4.65416844426867   10.88611238824756
C         4.47180384948318   -5.54728979695346    9.84425823249114
H         5.16980962620599    5.42135114674172    8.19909351357221
H         6.64749314481007    6.47767509508020    9.87836588692345
H         7.44747717781424    5.15601208443589   11.81192890080567
H         6.79770391691077    2.82696745476324   12.05321160372632
H         5.44576913707831    1.05194241342808   12.51709084509133
H         5.40037129009940   -0.42287083999660   11.53561954937553
H         6.85865886408444    0.58484255617953   11.55829750616421
H         4.98256161304589   -2.91016727616373   10.34183251369445
H         3.55944533865221   -2.54729098128011   11.34323510525380
H         4.27332635654280   -4.82163397972030   11.86226217097680
H         2.75166706005144   -4.90810371483971   10.96738303149204
H         4.35856786211346   -6.59463466292376   10.11304624218215
H         4.01475387570126   -5.38772094700185    8.87058554378698
H         5.53363128404506   -5.32252024571937    9.76863242300045
H         1.22546590119331   -1.56450025136114    7.48608762614047
H         1.55676806305528   -0.32494438002623    6.25854815691146
H         2.57751209968212   -1.77296955720610    6.35777292738740
H         4.83590642002722    0.58790495747052    5.54587644823810
H         5.43434854184801   -0.84011116787961    3.60268934653429
H         3.87262845627423   -1.03097832572019    1.70069089368199
H         1.73445377864100    0.19117500593813    1.73347767492504
H         1.14842103815269    1.61685299250470    3.64902809774837
H         0.66883225292423    1.38753459853135    7.98272225066011
H        -1.78199312272317    1.75710113499498    8.10403813996599
H        -2.89234871019383    3.16974957081769    6.41327699800958
H        -1.56811071794714    4.22265304752501    4.62227463900885
H         0.86645081554505    3.85994143740891    4.50474949633655
H         4.56093215114724    3.14256387743490    4.05041748298675
H         5.40823468003141    5.37602702877773    3.46369163982828
H         4.67570469515976    7.35536641720299    4.73804269127105
H         3.09129653667219    7.09686661078486    6.61254758420910
H         2.24199611780182    4.85490155762479    7.20654561417832

