89
CSD_code = NAJWUQ | q = 0 | S = 0 | Stoichiometry = C30H51N5Si2W | MND = 5
W         3.74870357257977    9.30184358010870    1.29761711399926
Si        3.97817731076004    8.77758713355381   -2.01084883411789
Si        6.78661564710060   10.97840581564655    1.35665168921748
N         1.78405638582075    9.32944189257875    1.62618090134475
N         3.82977017478132    9.99317243663791    3.13907189780547
N         3.29118959491841    9.63734156908824   -0.68674767693137
N         5.17934896984482   10.70087584115536    0.80253962152840
N         4.36683407552616    7.61540587414091    1.30907717345789
C         1.86213990637379   10.67261494628196    1.96555338529043
C         0.87173725333949   11.73433958349848    1.53715610594627
C         2.92781441449866   11.02109762967328    2.77925948057151
C         3.14417334403124   12.45244717083681    3.22385658000886
C         0.57601712435688    8.62035847117621    1.21133263148229
C        -0.59816452922889    8.86467829789729    2.17242604210935
C         0.96577962758883    7.13243539030967    1.27719492767965
C         0.17014838174216    8.93902359502302   -0.24335423994751
C         3.87523536719511    9.48450159385863    4.51045813586158
C         2.59018067437000    8.66285481789864    4.73987847320075
C         3.98199274558160   10.55469330943643    5.60687260567359
C         5.09272748336423    8.55588349493563    4.59503129453838
C         3.36202091464427   11.03620309755902   -0.68437451883829
C         2.53803502707242   11.85959960482461   -1.43500059042132
C         2.69501202163578   13.24174367641157   -1.39460278755671
C         3.69849810279167   13.80134072728932   -0.62891121341556
C         4.55174130594153   12.99445891714299    0.11605130486182
C         4.39857670944730   11.61146238606670    0.11651779619444
C         3.52009425494763    9.54015498862196   -3.70631509754260
C         3.30699917187175    6.98928355917806   -1.94276959544567
C         5.89604072522397    8.78231568894539   -1.87158039376864
C         6.94079443167717   12.06091777888390    2.93967167548850
C         7.90284209633989   11.76377152268693    0.01370131101874
C         7.40538036286881    9.21690693066981    1.77547143671192
C         4.76831355249597    6.32893272823774    1.41891031840355
C         4.20542928728740    5.47371490544634    2.38925382275260
C         4.61341050056111    4.16291671140064    2.50666040856039
C         5.59020037367921    3.64866830105001    1.66793058840547
C         6.15627310123356    4.47095974655941    0.70560947956006
C         5.76100050307068    5.78479793185006    0.57847478246468
H         0.21976355817630   11.38284415341194    0.74620874714926
H         1.39912288414830   12.61250909508665    1.16406172407250
H         0.26151278147714   12.04949867242512    2.38617129668629
H         4.07487344999698   12.53811754868835    3.77536504179258
H         2.32406831752669   12.80354474765467    3.85383956635219
H         3.20680209750069   13.11890100517548    2.35990939141295
H        -0.95412488992331    9.88916359958422    2.12144922890999
H        -0.29017027369989    8.65693382344429    3.19497813578457
H        -1.42206858096504    8.20286696632021    1.91615717044416
H         1.89455836329941    6.98816453721374    0.71785981998451
H         0.18448081631474    6.50443832461237    0.85596833643615
H         1.12804608646208    6.83161205226857    2.31028436117279
H         1.07394270112646    9.05958701330994   -0.84161280086502
H        -0.43073695162103    9.84210928534933   -0.31648354639704
H        -0.41670010858665    8.12112999338598   -0.65397795749307
H         1.72127855645323    9.31958143170373    4.72280963589504
H         2.61971452146872    8.14480955122219    5.69587258794783
H         2.49897574086045    7.93631677108893    3.92813088392573
H         4.87214521865672   11.16406886006760    5.47167295302726
H         4.05192734865980   10.06607815921948    6.57635852776009
H         3.10720290783092   11.19872429606909    5.61223588728059
H         6.01025292524035    9.13178646538110    4.50253742211816
H         5.05057183570082    7.83352273189497    3.77841352223582
H         5.10512850052304    8.02460757110290    5.54387127593809
H         1.77378515582535   11.41181378908093   -2.05368352138865
H         2.03751546029076   13.87154648460852   -1.97546754018887
H         3.83084588826644   14.87358324751960   -0.60696682770201
H         5.34577994352354   13.43635436334471    0.70011479933649
H         3.78236537412006   10.59270137322083   -3.74872143518794
H         2.45816668026932    9.45677736746581   -3.91459875624247
H         4.04909359856206    9.03505082989144   -4.50704629049119
H         3.52395265221092    6.52981859675492   -0.98333034686377
H         3.78040303427282    6.38762141377624   -2.71048243983134
H         2.23566405990795    6.94250825791125   -2.10747679383986
H         6.31587847100244    9.70994968984724   -2.25136864820252
H         6.35808873854461    7.96574781053777   -2.41767660259943
H         6.17068621055525    8.69929234607846   -0.81851951428379
H         6.61479471555803   13.08470218927465    2.78029201462681
H         7.97283245926236   12.09824427843563    3.27485219801691
H         6.34857964361065   11.64692592491610    3.75061400735055
H         8.01003733541545   11.10682056650311   -0.84362455310542
H         8.89557719734593   11.95586757924348    0.40695506239882
H         7.50370335468436   12.70576625165266   -0.34786283313603
H         8.08136689561554    8.83487558894587    1.01751375392736
H         6.54728283453265    8.54088497264830    1.84162716303544
H         7.93880791921893    9.18681943060325    2.71918122909619
H         3.44233125805783    5.87460885309662    3.04356012852380
H         4.16549222365228    3.53091409133143    3.26141246296269
H         5.90611674158571    2.62072758274604    1.76343115585550
H         6.91864657997637    4.07912826853859    0.04661189408220
H         6.20009780017065    6.42368054975628   -0.17322701386075

