37
CSD_code = NAJYEE | q = 0 | S = 0 | Stoichiometry = C12H12Cl4N4O4Pt | MND = 6
Pt        1.49419710247548    4.15963345067199    0.00059562275402
Cl        1.52935630797552    6.39485346368360   -0.78729888912117
Cl       -0.12267758398825    3.63102151991039   -1.54091250232054
O         6.43639521291774    3.57576544661012   -5.02658692332507
O         6.75920003090727    1.14809919422214   -5.94887661701950
H         7.15730437563561    2.02153956898005   -6.15227087409900
N         2.93637469760074    3.64553251988622   -1.46508947592644
N         5.79328596995837    1.44359394667384   -4.99314826451626
H         5.38265271501088    0.61676299977431   -4.59419342143108
C         3.93996860570878    4.46504219106853   -1.76676855964636
H         3.99989302048154    5.39194712840777   -1.21213225763086
C         4.84840761639102    4.16900096303583   -2.76399673196674
H         5.65292677606656    4.84583418525141   -3.00537605493963
C         4.71443560793513    2.98106590264524   -3.48126069259898
C         3.64372915496275    2.14819147146591   -3.16928702579763
H         3.44863406577452    1.23720591929102   -3.71121254449551
C         2.78068935544361    2.51783454223109   -2.15191521979997
H         1.94223373334815    1.89216805539868   -1.87726028071321
C         5.71815499728494    2.71177464457259   -4.55088285104562
Cl        1.53452721000440    1.92467581146794    0.79277659434423
Cl       -0.12073890953224    4.68641018431015    1.54462950947680
O         6.43686038685630    4.74336150046081    5.02531891216234
O         6.75958906292104    7.16917537790572    5.95105344082974
H         7.16008210483937    6.29571145960638    6.15032639814350
N         2.93845682350081    4.67549501099437    1.46241032374979
N         5.79210494526098    6.87494277023932    4.99627639241378
H         5.37912273382221    7.70243488246037    4.60125557794306
C         3.94281510179056    3.85669248916323    1.76403931668070
H         4.00400452877154    2.93015664671323    1.20890301005844
C         4.85027125892491    4.15255051950159    2.76197326258955
H         5.65562009175212    3.47688504588983    3.00399703334458
C         4.71505456746066    5.33951544028575    3.48075312476283
C         3.64452414314626    6.17232224424833    3.16813842294341
H         3.44835256688881    7.08338738353251    3.70944971557496
C         2.78254541524294    5.80287593060519    2.14975133443598
H         1.94411175963264    6.42872999383895    1.87543722248207
C         5.71793444678060    5.60781019495411    4.55138397162195

