72
CSD_code = NAKBIL | q = 0 | S = 0 | Stoichiometry = C26H39MoNO5 | MND = 6
Mo       11.49000818095217   14.12777612168290    3.76766979256901
O        12.25536309037650   13.40750692220124    2.48151068045199
O        10.82767947864217   13.06752172230569    4.85214463348647
O        10.05998571748416   14.73579123265144    2.90371888411622
O        12.89550341029040   14.73480817695694    4.65062028273630
O        12.38526764708250   16.25114836919042    2.13387170925886
H        11.97977932105993   15.69034920104171    1.45822561913035
N        10.68886235788279   16.26539745106311    5.07941827140112
C         8.79803348042520   15.14233972250232    3.02863330535249
C         7.71766732006398   14.44365943637282    2.45447192925627
C         6.44437020540799   14.95202575535763    2.67409941683238
H         5.58988396979675   14.44351615925173    2.25887124344738
C         6.20470313881941   16.10259508782827    3.41438855341037
C         7.28457025950074   16.78343787929918    3.95371481044691
H         7.12242464093032   17.68865385039074    4.52270954054361
C         8.57307317951367   16.31746840016610    3.76090892216203
C         9.77190514600072   17.07610560497934    4.26310241988358
H        10.34211335419197   17.43924904231883    3.39594678337483
H         9.42983817771858   17.95085268164486    4.84423613302064
C        11.82908008422222   17.11527841443942    5.45590869842423
H        12.29103238917504   17.47013065492357    4.52431201566245
H        11.46746653886540   17.99579498588749    6.01639679958972
C        12.87561163690738   16.40880045211519    6.27569425583279
C        13.34586050447383   16.94489769340431    7.46085210806389
H        12.92678364327298   17.86929014719741    7.83428696354324
C        14.35410042231659   16.30919302316517    8.16927103202555
C        14.87826990288573   15.12697744930693    7.66481952754315
H        15.66126940235387   14.64985139067776    8.23078441673493
C        13.40815162284799   15.20683971497426    5.78240058190148
C        14.43740164601928   14.54627111690981    6.48260376244232
C         9.99963486054087   15.80260958942831    6.28206489690109
H         9.63932493411077   16.65317492564502    6.88118688869212
H        10.68203808562264   15.20449796150338    6.88637016781498
H         9.15046968806327   15.18095241437555    5.99786741064159
C         7.95833596381494   13.16598480727465    1.65799012892579
C         8.39684606650647   12.05977578240203    2.62893795086372
H         9.32312938453161   12.32993285910180    3.14556636761454
H         8.56935502473828   11.13541266700179    2.08166952595031
H         7.62262606110460   11.88341142357096    3.37356078919191
C         9.05236563324690   13.38665792539056    0.60016773345998
H         8.85488738491279   14.29511081899481    0.03253191470066
H         9.06834640656748   12.54647977125675   -0.09104772665586
H        10.03910735556578   13.45526363390615    1.06219196242335
C         6.69289940616802   12.69439475060200    0.92980866908731
H         5.91000360378327   12.41924517690745    1.63194500436632
H         6.92794489263132   11.81245502726527    0.33808454432327
H         6.31834574855630   13.46376666129413    0.25814404259550
C         4.80431600385358   16.59014466408237    3.64137169874526
H         4.43697887363791   16.23980588156438    4.60659862654529
H         4.13406946039173   16.21891151862678    2.87022526945098
H         4.76932438950077   17.67752434647083    3.64446804998328
C        14.86371597183524   16.89863343874290    9.45119621480456
H        15.32008281029330   17.87088534920503    9.26755372051091
H        15.60608681257104   16.25076153012081    9.90923197735701
H        14.04639004581793   17.04328554252278   10.15621526525757
C        14.99759353627944   13.22517329861983    5.96750969688100
C        16.23892314419856   12.77965757914833    6.75146243594095
H        17.02289371206881   13.53236668156634    6.70428202937176
H        16.62534128547355   11.86043970055121    6.31683264925960
H        15.99958075907361   12.57544373066022    7.79208156381681
C        15.39624032254684   13.34647489001924    4.48794439769018
H        14.51468914258331   13.40083726424711    3.84721533714435
H        15.97006226019648   12.47123637844732    4.19024033479146
H        16.01197348440773   14.23096590275206    4.33062333315896
C        13.91673597620067   12.14461825107445    6.12243298435569
H        13.63448133296905   12.04119290859889    7.16879779188951
H        14.29819382975185   11.18855735812966    5.77010037028674
H        13.02245255136167   12.39090731471012    5.54107842082498
C        13.79216800164132   16.14167666071291    1.97354865570823
H        14.25629274136996   16.64880920815261    2.81927505868631
H        14.10544998946891   16.63035003540956    1.04425449318356
H        14.10264319256541   15.09398650974081    1.96432626081778

