54
CSD_code = NAKBEH | q = 0 | S = 0 | Stoichiometry = C20H27MoNO5 | MND = 6
Mo        5.49815439941538    3.30105931272454   10.34803465792566
O         6.31621432129237    4.14521259411004    9.17817894495340
O         6.44460489394173    2.77168361096157   11.59141456113348
O         5.13139333040826    1.81308174873330    9.42436374496721
O         4.51244216885010    4.57981952218421   11.07035304215431
O         3.60011613138844    3.97775951506930    8.39521679013108
H         4.35316161373050    3.72150487779307    7.84430746598258
N         3.28198330753511    2.16265489648546   11.47313238923867
C         5.01995575100905    0.52015629797104    9.74500831168839
C         6.08617040819568   -0.35795115216809    9.50870703111573
C         5.92945611999643   -1.69438800967011    9.84046817562416
H         6.74940110633077   -2.37563531764833    9.66200515473591
C         4.75400243310464   -2.17706541738444   10.40217202859552
C         3.71998269887840   -1.28488562399790   10.65782546866558
H         2.80794985202617   -1.64292350820443   11.11533179560143
C         3.84123753858556    0.05768615174108   10.33897910415004
C         2.77195309130926    1.07597252961230   10.62279604635581
H         2.44023922396609    1.52355819251707    9.67589705467931
H         1.90628756451437    0.58825495506496   11.10434699776848
C         2.21763839254918    3.16089949017470   11.65900345467215
H         1.94003023374613    3.53399564068728   10.66410965185465
H         1.32881061434572    2.68881389108000   12.11382524014517
C         2.66795964961642    4.31205271533312   12.51676172632749
C         1.97425036411629    4.72804520072941   13.64120522212996
H         1.05889918874284    4.22296668480834   13.91748109837959
C         2.43584292715901    5.78097079331777   14.42152953660422
C         3.62968407432614    6.39870367848283   14.07068353578095
H         4.01217237876942    7.20039405763572   14.68645494590448
C         4.35111673782912    6.01053573595870   12.95335123560103
C         3.85083564058119    4.96958644611128   12.15784808323461
C         3.68291966769700    1.62114584321649   12.77015415165935
H         2.83140111969334    1.14254815053444   13.27835677643443
H         4.06693258254623    2.42341266843214   13.39956163194212
H         4.47332352157192    0.88516432228549   12.62810868605121
C         7.35012857779398    0.20530583878037    8.93472419229289
H         7.20705865702734    0.46274289870133    7.88379897380030
H         8.16799221412856   -0.50567902017753    9.01547246753717
H         7.60883893350707    1.12936586614220    9.46903839099955
C         4.59822043727872   -3.62768527066396   10.75105294602708
H         5.48714115137783   -4.18962421060844   10.47832168230133
H         3.74313504777866   -4.05533474197342   10.22928782962818
H         4.42847429774287   -3.74580691452167   11.82054881317664
C         1.66505722600232    6.21298881469575   15.63356671359140
H         1.68538789550537    5.43243599371543   16.39370281976965
H         0.62367430542836    6.40108453716468   15.37775078007373
H         2.08835588830906    7.11822829163634   16.05995359508659
C         5.65746879590817    6.63103308277804   12.56168959779207
H         6.35674763760166    5.84257935627830   12.25348886877943
H         6.08388859907529    7.19768763731131   13.38522541739214
H         5.51995465224318    7.29848399981328   11.70937617234296
C         3.51410089228770    5.39417411229232    8.34221065636778
H         2.73708201197349    5.69815951770673    9.04369417683765
H         3.23392979159081    5.71867768767476    7.33378991412961
H         4.46433993967228    5.85429202857087    8.62913224988701

