95
CSD_code = NAKCAE | q = 0 | S = 0 | Stoichiometry = C34H54MoN2O4 | MND = 6
Mo        1.43038035774506   -1.98654152518005   15.44155324370515
O         0.45443658804056   -0.64722702204155   15.58230723905378
O         2.90441449037964   -1.68474326375051   14.73248406579659
O         1.94065647789948   -2.13386384510950   17.13264526005526
O         0.62889343093925   -2.79116347019441   14.07997312285713
N         2.15645641790798   -4.56892084913549   15.97065815756116
N        -0.55646877519618   -3.63100365016407   16.35814087437374
C         2.65565545721527   -2.55337800047914   18.16423564355553
C         2.78224231684756   -1.80116644837510   19.34953859916937
C         3.43705360743076   -2.38727705265135   20.42454722251292
H         3.51305970658126   -1.82955391598711   21.33934732597996
C         4.00336847133433   -3.65509373045516   20.37195701853622
C         3.96686946989385   -4.32472753514784   19.15483339083533
H         4.46272610557742   -5.27809057394783   19.04153927730248
C         3.31841132010852   -3.78886694501655   18.05719000408900
C         3.42268900660546   -4.45154958404894   16.70670120311192
H         4.09466829482121   -3.84268876581718   16.08732733972921
H         3.87652235984683   -5.45147073635371   16.83090021019056
C         1.18848461270174   -5.33504349150421   16.75269010257581
H         1.30089535252289   -5.05155508951044   17.80364970229946
H         1.38723541352430   -6.41821874343236   16.67359725938936
C        -0.24288344170810   -5.05695637985545   16.29862490595028
H        -0.37010082413609   -5.38878910146643   15.26358205767378
H        -0.93931931874329   -5.63970577245978   16.92688464819921
C        -1.70914181236236   -3.33033099274007   15.49772371905749
H        -1.87501089931862   -2.24637528245374   15.55720925585821
H        -2.60854247330721   -3.84022419573451   15.88788158389243
C        -1.53621716683284   -3.68725348055342   14.04251149162847
C        -2.56304845736928   -4.31163883300250   13.35132842762014
H        -3.43291002573117   -4.62215730400082   13.90836646608967
C        -2.48571508346300   -4.51423699453109   11.98249201424792
C        -1.37541189874648   -3.99909359716413   11.31691228121665
H        -1.33869211911298   -4.09858750036804   10.24606794656418
C        -0.32656914150322   -3.36180785634631   11.95926825526651
C        -0.37822628941040   -3.27022508242982   13.36709824715212
C         2.42196990173199   -5.21975860487013   14.69382187023553
H         2.82300827053489   -6.23589683560500   14.84180855260084
H         3.14961222200265   -4.63153568535679   14.13730204331532
H         1.51031025924431   -5.28696745463877   14.10233219411417
C        -0.88047765171710   -3.22841013134836   17.72101596710655
H        -1.74282078098346   -3.79553968423891   18.10828936279204
H        -1.12370332063567   -2.16739350297108   17.73193348645267
H        -0.03016954785766   -3.39211549585564   18.38111129285102
C         2.29376569397875   -0.35676806959891   19.37866807970945
C         3.06418950878253    0.42115469864252   18.29851639968366
H         4.13551097147913    0.36358878024846   18.48441983470298
H         2.76436559064726    1.46679609384516   18.31295267963411
H         2.85893187004941    0.02387945642153   17.29888975860973
C         0.78902186544630   -0.27405863020100   19.08633251134155
H         0.58654932849710   -0.50488473038457   18.04043185270800
H         0.43480711544013    0.73683726999016   19.27794926145762
H         0.23637033661310   -0.95863999335417   19.72865718492582
C         2.55343553704173    0.31872965042202   20.73055589879474
H         2.00979599053554   -0.17895019685100   21.53087790544087
H         2.21238476363586    1.35072760374829   20.68513494625706
H         3.61420682750648    0.33015111711896   20.96921313678474
C         4.69470409835252   -4.30235892176018   21.56333382156029
C         6.18180487972094   -4.49371927543945   21.23444234531706
H         6.70023691701545   -4.93919487837860   22.08100828596746
H         6.64230801031106   -3.53379792501913   21.01216824875812
H         6.31533725023828   -5.14158858061469   20.37271794392019
C         4.04583191420494   -5.66561063264204   21.84289250526382
H         4.14459399456771   -6.33434507787897   20.99260987840631
H         2.98673940286155   -5.54003894555042   22.05817950733515
H         4.51873952774313   -6.13728019358711   22.70175457535428
C         4.59143934253086   -3.46084763517254   22.83822889956718
H         3.55253401897706   -3.28439901094808   23.10672890097611
H         5.09751248413203   -2.50605018304387   22.72021254083953
H         5.06697098052015   -3.99092579773649   23.66110858204485
C        -3.57039470080067   -5.22421103330002   11.18567222071135
C        -2.95531218578162   -6.42916226701414   10.45993713159306
H        -3.71810570389195   -6.95093094365719    9.88574506623900
H        -2.52967319198254   -7.12465996027213   11.18035295789997
H        -2.16789126491092   -6.12111905376419    9.77825495796029
C        -4.16373668696235   -4.24842405315793   10.15999814107227
H        -4.96889079285325   -4.72818094200139    9.60730644971363
H        -3.41305850897051   -3.91742494732628    9.44834547395239
H        -4.56418663899294   -3.37219745175609   10.66489229375683
C        -4.71076618821968   -5.73507405805308   12.07071954846834
H        -5.21742701437205   -4.91210940189188   12.56890590565087
H        -4.34279250038785   -6.43388651725966   12.81852227370093
H        -5.44217798510537   -6.25528676620698   11.45544397969285
C         0.80608077933157   -2.67711538209001   11.20222390773395
C         2.17332789841179   -3.22799131132312   11.63077185148605
H         2.17879614212099   -4.31644338771897   11.58676359130180
H         2.42169498347879   -2.89848181704963   12.63956420497670
H         2.94428585580554   -2.85413203769039   10.95997193686558
C         0.67814205127437   -2.84973939195492    9.68396267446434
H        -0.25559729823744   -2.43097249916298    9.31623510301519
H         0.73932193730125   -3.89847090298105    9.40036792731102
H         1.49376592871755   -2.32205983219463    9.19438551024199
C         0.74142405172062   -1.17386539827049   11.52094025132681
H         1.51803353252118   -0.64691218017142   10.97077855179465
H         0.89609909867671   -0.98617030345732   12.58879565362324
H        -0.22674070199772   -0.76834014626261   11.23147461751348

