54
CSD_code = NAKDIN | q = 0 | S = 0 | Stoichiometry = C23H18BrN8O3Re | MND = 6
Re        0.34645755702159    7.02731241701139    0.56067827648122
Br        1.42214040400145    5.52283904108117   -1.22424258341119
C         1.16352671574886    5.05697917044624    3.35548268821250
H         1.53877707176865    4.27318510417141    4.02946700420435
C         1.35077913854383    9.54754527385937    5.56428824044263
H         1.91969812880545    9.42005172846585    6.49737204115071
C         0.47047998376031    6.14408447100827    4.16923625130651
C        -0.86151970769416    6.01173605897698    4.53869112944572
H        -1.42766491067805    5.13886401708045    4.24808354092374
C        -1.46754170367948    7.00967200405050    5.27964676639129
H        -2.50098205464626    6.90528631834576    5.57042544988724
C        -0.76797814146994    8.15295922993411    5.62479413192662
H        -1.26106866131879    8.93769843252399    6.17644027021133
C         0.56016644528105    8.29179099915524    5.25165925329672
C         1.18400617900072    7.26655177853440    4.55775036528648
H         2.22782338611938    7.36381754580660    4.30144923111109
C         3.60219098071951    5.34239006064340    2.91680743282176
H         3.89505035948119    4.62685981900129    3.65847003361413
C         4.34674152407290    6.14343922454417    2.08885057682400
H         5.41232458286581    6.20519078084485    2.02212443148214
C         3.40728747160909    6.85557916601669    1.33717425518867
H         3.58262261716086    7.57191074114853    0.55737810298904
C        -0.21668703939262    3.15597241449437    2.51033292607154
H         0.12076789316396    2.47652810496420    3.26680902651207
C        -1.11309346622459    2.99466436150756    1.48424631007706
H        -1.66869055744284    2.11632183421102    1.23229364918692
C        -1.13359969810229    4.22836812592971    0.82721499327805
H        -1.69316498931734    4.51242417924645   -0.04391117851914
C        -0.34813616925486   11.26005014655832    4.89658241036391
H        -0.48127314922000   10.85526000500747    3.91426568203299
C        -0.89718049326314   12.34446880095272    5.53437566640292
H        -1.61474439342578   13.03713158495123    5.14648491043657
C        -0.30841630097340   12.34573603043409    6.80874888774824
H        -0.46665292889442   13.02820812201870    7.61982622676529
C         3.54339096178726   10.30417503141257    4.61329530694171
H         3.99853308487043   10.46042522395490    5.57035808030790
C         4.00942713550508   10.50392075435281    3.33813968488267
H         4.97078616032531   10.86819229144505    3.04108741275742
C         2.94089506527727   10.12653206751790    2.50912535383998
H         2.88377916768383   10.14137470823447    1.44005632894361
C        -0.47276940601861    8.08479262979849    1.96461047191202
C        -1.23425733615701    7.21221955859766   -0.55763703259915
C         1.12416122209005    8.60038026293887   -0.27570252265194
N         2.18115632431681    6.51497729714459    1.68886313938770
N         2.30155951959318    5.58606579239662    2.64427387400994
N        -0.31191594451329    5.07816380945205    1.41705168232670
N         0.24875313079290    4.42155416709308    2.43838089473609
N         0.53611099361724   11.34380951230053    6.94019911856987
N         0.50117217167267   10.68808914160723    5.77937207039514
N         1.91066503771743    9.72393525988871    3.22023781308451
N         2.28351093779298    9.82672016487223    4.49806959322069
O        -1.04026605468608    8.75068164729767    2.70948974565919
O        -2.14067896351980    7.26051801286597   -1.25722167938699
O         1.62374071772749    9.47929557390365   -0.81494573648006

