72
CSD_code = NAKHEM | q = 0 | S = 0 | Stoichiometry = C27H35F3NO3PRuS | MND = 8
Ru        3.52126587952994    3.84079916802520    3.39093047542369
C         2.66313091290614    5.65747299208499    4.26979149937620
C         3.46906083131675    6.13079710949487    3.16628671747787
C         4.80831373061078    5.75122611576838    3.39543530193584
C         4.87596774814550    5.06820971878322    4.66508138729326
C         3.56732154185531    5.05843554624748    5.22605900581922
C         1.27405756641234    6.13180737875796    4.59445625874209
C         3.01588626792269    7.07703323307728    2.09577521661605
C         5.99296415638485    6.20891368288225    2.60759397448303
C         6.14862294462396    4.74042283499152    5.38266665948988
C         3.22327897140081    4.68912399384766    6.63804903049930
P         2.73213993944260    1.91478667090846    4.25722652730645
C         1.58979696115380    1.82002383564569    5.68144333126746
C         1.97167363885075    1.25832148824799    6.89523954945679
C         1.11186853166136    1.28148335706379    7.97949817624932
C        -0.13449280936542    1.87406360093069    7.87068090007907
C        -0.51512770161041    2.45759467771564    6.67265634650564
C         0.34518540858793    2.43753262541562    5.59165256538630
C         3.93340900828037    0.60818985790746    4.67770966866185
C         5.26087971676072    0.97824786792718    4.85730550187415
C         6.21653786815165    0.02311850673883    5.15555120725720
C         5.84850555542933   -1.30490679591004    5.28885746106351
C         4.52126718929890   -1.67618174101139    5.13700529487973
C         3.56423284958673   -0.72570454472142    4.83429190891046
C         1.73474849010848    1.12080507677651    2.88961705273457
C         2.21161987372177    1.75054013484389    1.58114809723693
N         2.27303428912905    3.22126491605414    1.64779660862519
C         0.92000388843026    3.77194171638184    1.70120696844456
C         2.92355077621406    3.72205215519978    0.43525044207213
S         6.25122075707981    2.95356566617354    1.82243523732563
O         4.98109200268781    2.48623685165541    2.38511811418276
O         6.09950434283852    3.83181249037589    0.69696370737175
O         7.26950915803624    3.26522127651801    2.78156767419091
C         6.78372091461195    1.32729063205917    1.06104169895140
F         7.89183520922260    1.40940784868099    0.32578771283017
F         6.98065522395804    0.39658090123282    1.99793424380903
F         5.79792776848112    0.88847363161041    0.26409227150291
H         1.32727254866123    7.08043570061131    5.13282500461585
H         0.75551959291576    5.41314621801674    5.22607387000678
H         0.68361237305789    6.29020625759211    3.69451622290836
H         3.15506958830111    8.10273715759760    2.44521065006379
H         1.96085626791560    6.95194819605624    1.85641067415698
H         3.60333893824059    6.95478113099587    1.18756404361457
H         6.28119838793908    7.21012010229360    2.93921892333155
H         5.77632828872153    6.24559511534101    1.54211242601326
H         6.83575298324948    5.53820771200351    2.74924154402455
H         6.61803979063600    5.66279745855648    5.73171926203707
H         6.84776687365036    4.23822065620514    4.71560336603982
H         5.96036765435629    4.10433663643737    6.24523690372602
H         3.45928842177316    5.52647875402042    7.29748279223875
H         3.79322059333746    3.82237111104684    6.96776610275848
H         2.16543498027767    4.45887862936453    6.74071677516936
H         2.94530964771487    0.80012551780581    6.99000557465456
H         1.41801732607531    0.83731407181969    8.91527560110351
H        -0.80425259705988    1.89026084368911    8.71744956226479
H        -1.48126722980291    2.93382870446254    6.58602112581007
H         0.05601320003053    2.91830850072498    4.66721272563214
H         5.53864574955721    2.01538454409667    4.73485063800130
H         7.24849919566743    0.31600809098363    5.27363888020172
H         6.59347090591081   -2.05391349043381    5.51328025740354
H         4.23251360393425   -2.71112046508829    5.25304804619439
H         2.52682373686546   -1.01751475308720    4.73427628108416
H         1.90854394941146    0.04382429431549    2.85579430887217
H         0.66892231230146    1.29199329346394    3.05724547927490
H         3.22618485600266    1.39453569530799    1.37784458777828
H         1.55611970757133    1.44585367135532    0.74962599145693
H         0.42777258972285    3.47389622825078    2.62389747598232
H         0.32210588679861    3.42712357534332    0.84677637923380
H         0.96594188951239    4.85835777730726    1.67420902342789
H         3.97173549992190    3.42304110854269    0.41165420005918
H         2.87782920275752    4.80957026527371    0.42001626913727
H         2.42183388229135    3.33975721140835   -0.46312476354650

