73
CSD_code = NAKJIS | q = 0 | S = 0 | Stoichiometry = C28H40O2P2Ru | MND = 6
Ru       14.97929997957053   -0.03515218995913    3.41652444046162
C        14.66964761103446    2.08650898365739    3.50044455679210
C        13.54218370662358    1.55223154102173    3.14202304845489
C        12.16981830213402    1.91203042732591    2.91357467730139
C        11.64102598192062    3.05709219465494    3.52398593960201
C        10.32215681986708    3.41135701783606    3.32734280407609
C         9.50178414872380    2.64203288934131    2.51632622043637
C        10.01102500929352    1.50498941443094    1.90984427844663
C        11.32604709234459    1.13779354616165    2.11280038126212
C        15.30126560226670    3.36894503135317    3.64403631966282
C        16.42355616603343    3.54993386900333    4.45709880228493
C        17.01719374697443    4.79033526997016    4.57657250629350
C        16.51647275101992    5.87445289976629    3.87360262177269
C        15.41382341905919    5.70691234853881    3.04973366582933
C        14.80823099680047    4.47247839397978    2.93512508064924
C        16.76043836470079   -0.30122095432801    3.93753665216217
O        17.84785859082342   -0.52591684076185    4.25952419842640
C        14.18791764855728   -1.69368861897133    3.04758885028955
O        13.78614930814935   -2.76826033581914    2.89434286742073
P        14.26725698366574   -0.20109829070886    5.61251926679155
C        15.22952240662558    0.82679660022736    6.81700598563211
C        14.98066603288755    0.62329924520001    8.30690212181772
C        12.54213424819713    0.31684744949964    6.02630866450709
C        11.49179313064855   -0.51426090226346    5.30100560970346
C        14.29725632522132   -1.88379996210499    6.36897741484755
C        15.68234312293592   -2.51415248680382    6.32428306041096
P        15.64103618233071    0.25569279211505    1.21519604717950
C        16.74523994988510   -1.09704046219094    0.60681685301013
C        17.27506203919886   -0.98586765451250   -0.81758659160986
C        14.34676213264540    0.37025900909222   -0.10349580950575
C        13.57886854976023   -0.92880417095186   -0.30480874675863
C        16.57151128666676    1.79225918389437    0.77733704736905
C        17.87391743423345    1.94428479051196    1.54878685570342
H        12.27844906905434    3.65813176620578    4.15802053669371
H         9.92826422269519    4.29600311281608    3.80821248520280
H         8.47070606240700    2.92507186802156    2.36253908696324
H         9.37462701070634    0.89766635661099    1.28137521312985
H        11.71621476011400    0.24026860231747    1.65248042464883
H        16.82617325387389    2.70001800123592    4.99338255335798
H        17.88081130296032    4.91352079021256    5.21511449407428
H        16.98539039421197    6.84346586664906    3.96266378149663
H        15.02364312174532    6.54805041422339    2.49372381410377
H        13.95053889628046    4.34266692955064    2.28943155288065
H        16.28578160303496    0.64314607313724    6.59079909495281
H        15.01297459800416    1.86465564114566    6.53577788608204
H        15.25706840722101   -0.38008443720479    8.62090697798727
H        15.58816731276573    1.32918606674640    8.87114499604451
H        13.94010671427904    0.79764346593746    8.56860169598436
H        12.39775839437702    0.25207065734095    7.10845162739527
H        12.45987871965029    1.36751534659655    5.72785555546419
H        10.51708161229386   -0.03417627286607    5.36508321526659
H        11.75371367060079   -0.61321984992480    4.24779431946441
H        11.41299913555028   -1.50981581387033    5.73212058515903
H        13.92312726004064   -1.81787638206253    7.39553617530275
H        13.60010900705354   -2.49578268248204    5.78803221935365
H        15.65776379107466   -3.51912144460778    6.74222499840080
H        16.02661065527696   -2.57886158524532    5.29115346297897
H        16.40253482067653   -1.92431758353630    6.88832373820066
H        17.57667289153153   -1.14573516303292    1.31897512980054
H        16.16994148139225   -2.02196620945794    0.73271469693452
H        17.90994258752567   -0.11122740591631   -0.93543493015871
H        17.87144620568160   -1.86597210622780   -1.05289890020995
H        16.46482736557975   -0.92692659598707   -1.54020114930434
H        13.66574420905036    1.16478035330450    0.22286998695355
H        14.81438384110826    0.69104486486510   -1.03923472576350
H        12.71447710021629   -0.76408492205274   -0.94606452191292
H        14.20553643207221   -1.68897580385725   -0.76617588039026
H        13.22978602098068   -1.31478116010937    0.65222627333400
H        16.75759187065869    1.79437423402107   -0.30097443505495
H        15.90262997005701    2.62883220392144    1.00742319507623
H        17.68404869845110    1.89628513699089    2.61964637893827
H        18.57954750711598    1.15774613199742    1.28843568896472
H        18.33316495171051    2.90661150532524    1.32916701203478

