59
CSD_code = NAKKEQ | q = 0 | S = 0 | Stoichiometry = C30H24N2O2Pd | MND = 4
Pd       -0.00012160274975   -0.00012701167335    0.00002037539729
C         7.21969559673332    2.21502409832862    1.13943211302977
C         6.40199608476771    1.17322366029990    1.03285014806956
C         4.95717992779648    1.17365033053959    1.21357048640881
C         4.25190129187525   -0.01697009206016    1.00301949349508
C         2.88311683740638   -0.06525731710376    1.13289425696616
C         2.16807823106274    1.08639545978993    1.48539480162646
C         2.86193617191242    2.27180276480359    1.72033989365807
C         4.23392562992814    2.31030523286885    1.57856422848431
N         0.77871000060770    0.97031975451504    1.55214291484418
C         0.07731874562557    1.50835686807490    2.49579772741531
C        -1.30727706925831    1.26317039736192    2.72419361506886
C        -1.98690666541822    2.05306121876632    3.67007754940684
C        -3.29450211266351    1.81791166248840    4.00162977683851
C        -3.96655815930825    0.74292702481037    3.40960960255923
C        -3.33423912391012   -0.06385947082764    2.50431998012512
C        -1.98988336072601    0.16173507278600    2.10353249242450
O        -1.46134691645675   -0.65305669010271    1.26410642813283
H         6.87666576119364    3.20690083530185    1.38029423611028
H         8.27947246433749    2.11042598908729    0.98228856547932
H         6.81977149924151    0.20588737481719    0.78005356690358
H         4.79316719243465   -0.90883808964469    0.72113991615930
H         2.33026515180550   -0.99654890322120    0.96635356321404
H         2.31838044986266    3.17199406699200    1.96943461557007
H         4.74897039484606    3.24325670672337    1.74662700619930
H         0.58341105230685    2.13562123462565    3.23520324641704
H        -1.45145877713665    2.87290469747591    4.12965022724646
H        -3.80210966091391    2.44694102949144    4.71674829030137
H        -4.99634335689631    0.54812969161663    3.67351826872482
H        -3.84349743348115   -0.89889596898176    2.04608881260084
C        -7.21962374742128   -2.21503255658459   -1.13872691334937
C        -6.40196061228629   -1.17317963712992   -1.03257052788338
C        -4.95719935847930   -1.17354275709770   -1.21388116867552
C        -4.25191790514118    0.01707096906933   -1.00325460424495
C        -2.88312066806538    0.06534843759710   -1.13303673827776
C        -2.16808518468288   -1.08629269094513   -1.48554853486778
C        -2.86192595316846   -2.27171941003050   -1.72038791077274
C        -4.23392441157215   -2.31021181099959   -1.57873136210259
N        -0.77873717896972   -0.97017026209006   -1.55236966597346
C        -0.07734504503154   -1.50822618716822   -2.49597769218802
C         1.30730481833322   -1.26321866819980   -2.72415573765875
C         1.98689197376301   -2.05309124190816   -3.67004890725804
C         3.29450142980990   -1.81799503722301   -4.00157232796120
C         3.96647042865011   -0.74276708057772   -3.40977966578455
C         3.33421460903583    0.06388638991146   -2.50436082548939
C         1.98999744070025   -0.16205062932181   -2.10319364952792
O         1.46133223031317    0.65286421054700   -1.26391306244425
H        -6.87664695342525   -3.20678581518594   -1.37981374948203
H        -8.27961442600244   -2.11038958317368   -0.98323815213851
H        -6.81979712920598   -0.20576784044981   -0.78004582618891
H        -4.79319269082719    0.90891968352791   -0.72125215037787
H        -2.33026862091972    0.99663204928912   -0.96642419602432
H        -2.31836289217479   -3.17191449628234   -1.96938204463720
H        -4.74894513863186   -3.24318031765656   -1.74661734676343
H        -0.58337951583529   -2.13565905444793   -3.23528411676403
H         1.45144829766744   -2.87301117973132   -4.12954492741557
H         3.80218382208655   -2.44726610173821   -4.71649459285556
H         4.99643897040523   -0.54842338604046   -3.67324644140616
H         3.84354516625133    0.89878237609308   -2.04604336036406

