66
CSD_code = NAKKUF | q = 0 | S = 0 | Stoichiometry = C31H28Cl2N2P2Pd | MND = 4
Pd       -1.50805576905308    0.95650327903670    6.21415488191662
Cl       -0.87085086070340    0.85389436167865    8.39354561185802
Cl       -1.19987328692720   -1.26273536672850    5.87552443427299
P        -1.66673325212844    3.13675648617063    6.62664959183907
P        -2.57251767391949    1.13335203474879    4.26843227367826
N        -1.99957902823688    4.09613555140188    5.25166869445168
N        -2.08937255673765    2.20882070331033    3.04962151930932
C        -0.99701728469700    4.06206287630479    4.23492068251008
C        -1.04290320994078    3.13446995561457    3.18817741697773
C        -0.06317574551869    3.18719558483257    2.20092199901204
C         0.95623341646685    4.12671780410060    2.21546440342096
C         0.98366821259952    5.04826519909538    3.25250349839550
C         0.01912414225059    5.01083459332763    4.24001617819818
C         1.99318773130803    4.12909334263040    1.13516595929993
C        -2.88367631370356    3.78215909020998    7.79339680975415
C        -4.06250609587841    4.37420731904957    7.34905663958683
C        -5.00654056386943    4.79796471187414    8.26670662842524
C        -4.78535059519016    4.62608183613286    9.62381086432849
C        -3.61903327318580    4.02153452542231   10.06635305041925
C        -2.66899426640212    3.59470391775974    9.15687645372344
C        -0.03201578839340    3.71917744385007    7.17822205282934
C         0.16934246416526    4.87226568675021    7.92515338817186
C         1.45942539229697    5.27672874635800    8.22163050173727
C         2.54131394977134    4.54387425824714    7.76170771086562
C         2.34158617799287    3.39971347201898    7.00414658336698
C         1.05615997538667    2.98626313411517    6.71113609799058
C        -2.95836688096645   -0.32831273182621    3.26597293829582
C        -1.88205582029130   -0.96683785673164    2.65400954804835
C        -2.08745736309817   -2.11635637549441    1.91741570751550
C        -3.36685189429676   -2.63699046826771    1.79485406695692
C        -4.43582889570991   -2.01045521058056    2.41283061498533
C        -4.23633934447978   -0.85913724734164    3.15542237963143
C        -4.20104294081802    1.73579788757940    4.81689465191193
C        -4.99056768964396    2.61045702626277    4.08305161473304
C        -6.20888798966706    3.02728435513844    4.59237724586132
C        -6.64017385039572    2.56963837067919    5.82700952680085
C        -5.85338489661246    1.69669593121487    6.56399455846385
C        -4.63266730532114    1.28211481793599    6.06411528711160
H        -2.15867347756316    5.06437348582760    5.53279402642181
H        -2.05162125152202    1.75211505101883    2.14182046145386
H        -0.10549773561973    2.46878226189828    1.39261827770681
H         1.75954248551510    5.79733526721257    3.29284010913713
H         0.04486857836315    5.73731855007982    5.04082152446683
H         2.57261738528311    3.20733952744436    1.16744505891048
H         1.52368266469469    4.19242482941746    0.15475862458757
H         2.67279397373954    4.96860336411531    1.25220473664842
H        -4.24440325757064    4.48787580640079    6.28989274320761
H        -5.92053713851924    5.25823687789489    7.92031506227273
H        -5.52704502630974    4.95609599469962   10.33625161866457
H        -3.45197027641814    3.87655269657832   11.12327175409041
H        -1.76750946679926    3.09706144723864    9.48556575205183
H        -0.68097423362409    5.43880439002378    8.28259628173694
H         1.62061905181180    6.16483377434515    8.81543474017105
H         3.54536496087978    4.86286575437400    7.99955670982526
H         3.18804188849082    2.82989179080185    6.65123173137618
H         0.87926819312489    2.06876487799033    6.13186963921820
H        -0.88360295414304   -0.56815778872676    2.78923351709352
H        -1.25174116724023   -2.61692857972927    1.45140230566371
H        -3.52749467398102   -3.54118816970659    1.22660775394058
H        -5.42947266663433   -2.42492975223290    2.32510637992217
H        -5.06767055635994   -0.37694061726586    3.65056771164644
H        -4.63904045850995    2.96549955409276    3.12485528291793
H        -6.82364199060317    3.71103592947420    4.02467970304104
H        -7.59159496090386    2.89666009779611    6.21974097491156
H        -6.19072518857431    1.34749511936556    7.52845523417560
H        -4.00380373024101    0.58483941348629    6.63675021776275

