39
CSD_code = NAKPAS | q = 0 | S = 0 | Stoichiometry = C12H16N8NiO2 | MND = 6
Ni       16.16628502661569    9.99736287603710    1.67546774311130
O        14.48290710636638    8.42971658016811    1.57202127553068
H        14.60061013148869    8.08910913372908    0.67513701492675
N        14.81515688485483   11.70888671307518    1.63632301185987
N        16.14005666926456    9.89679667284134   -0.14878189062855
N        16.13866401054319   10.75918556946364   -0.93818110265909
N        16.12181032778352   11.50688969999661   -1.79772336270785
C        13.52525359822597   11.63552186629720    1.34806343989503
H        13.06612824141345   10.66713012666095    1.49122765502826
C        12.79658858233887   12.72268197592817    0.89421252800082
H        11.74579735449207   12.62081569797504    0.67476887949436
C        13.45080915373951   13.93273667257041    0.72173007263773
H        12.92229431938273   14.79756627632926    0.34935978591143
C        14.79640613552528   14.01457032964982    1.02970125472893
H        15.33929010152155   14.93436893078724    0.88290684130065
C        15.45053227075300   12.87742159413744    1.49773988150719
C        14.28291030470627    7.35803456167390    2.46874530213158
H        14.26223557466913    7.78357962138826    3.47020066891512
H        15.08646610896312    6.61732336168085    2.41513309585445
H        13.32751404179965    6.86111104325701    2.26530283367736
O        17.84957093546953    8.42978127926543    1.78143429921764
H        17.73154408289945    8.08903322725665    2.67823882557104
N        17.51706486735899   11.70917432713825    1.71184292571773
N        16.19262793205658    9.89917918404837    3.49962365542445
N        16.19616215596054   10.76206551375229    4.28850892825272
N        16.21507959715959   11.50974298914165    5.14801576640249
C        18.80685051236171   11.63679831636154    2.00081803214984
H        19.26616382743683   10.66803507343177    1.86077133084987
C        19.53523699580637   12.72539475663970    2.45171731553571
H        20.58591670423182   12.62425954208083    2.67204811837248
C        18.88086836426017   13.93594140660945    2.62005251817552
H        19.40917347786318   14.80199994795846    2.98988490988852
C        17.53540518989746   14.01674032900435    2.31118596273680
H        16.99241260579516   14.93700207515524    2.45464611052060
C        16.88149835635022   12.87805684396312    1.84657793706615
C        18.05265196811610    7.35854132227916    0.88496300536898
H        18.07663259869780    7.78449062538506   -0.11627277402573
H        17.24889668970324    6.61775114727669    0.93547017856137
H        19.00732719412442    6.86150278961322    1.09131802568845

