81
CSD_code = NAKQOH | q = 0 | S = 0 | Stoichiometry = C36H32Cl2N4NiO6 | MND = 6
Ni        5.92037615895835   -0.00036431243098    0.00085221425388
Cl        2.51682789214821    6.55510381590970   -4.18701445821725
O         5.08676294198405    1.50765369478604   -0.79089342174099
O         6.30246111877247    0.93838945068131    1.60750179974976
O         3.88209934472971   -0.70700474238563    1.16949585250697
H         4.26346543542420   -0.84418302046313    2.04661499864004
C         3.13835604662289    3.29976807403366   -1.98391494064566
H         2.69248756404910    2.32772845877501   -1.83956487038788
C         2.59103091234009    4.19482677564610   -2.88351331634267
H         1.70850527133116    3.93734536119670   -3.44768495235666
C         3.19325452502990    5.43098967784507   -3.06275901712374
C         4.33800377340221    5.77436218568017   -2.35947453911532
H         4.80579679551509    6.73208731215614   -2.52536872204373
C         4.87069191783090    4.87849525508567   -1.45128031283052
H         5.77144706321018    5.13069326204446   -0.91238877770700
C         4.26556343211557    3.64366136292344   -1.24536296203297
C         4.85550397704742    2.64464811314920   -0.31055351884146
C         5.14167747207639    2.99648088731399    1.01693336935934
C         4.83929198411474    4.11109927862005    1.86437878903598
N         5.31086269797110    3.91300656957107    3.06133065396336
N         5.93457098346610    2.69909788357891    3.08268434639399
C         5.83916851972176    2.07848277564834    1.86777046572402
C         4.05333748226319    5.33602069980113    1.56227847416597
H         3.72548410583811    5.77879319247248    2.49889632127436
H         3.19061254084706    5.09406819183042    0.94584470005880
H         4.65848104659573    6.06783807823229    1.03009966592267
C         6.53510099278769    2.24641471407183    4.26109343304049
C         6.50160400243350    3.06926478029611    5.38488300508345
H         6.01354925947985    4.02726769855612    5.30974307019758
C         7.08623889339343    2.64926718318473    6.56332935771104
H         7.05758373494859    3.29171169262526    7.43102217887895
C         7.70665207998912    1.41244060480312    6.63574183565146
H         8.16303856949243    1.08681506791830    7.55858156043970
C         7.73857104506418    0.59692892935697    5.51730101600686
H         8.22020485154158   -0.36880364110841    5.56621753650218
C         7.15864571370066    1.00362895438494    4.32923332098460
H         7.18923705564121    0.36667422255962    3.46033475049863
C         3.22891977278024   -1.89321838691402    0.76400541285926
H         2.86244165531828   -1.71996760258242   -0.24625256620270
H         2.38282288120861   -2.11334752198152    1.42416903411259
H         3.90914217970256   -2.75067586213031    0.75218083735545
Cl        9.31062356394902   -6.56649875492207    4.18583007365989
O         6.75243731468058   -1.50999529535458    0.79281185995802
O         5.53920884845437   -0.93834863657788   -1.60644760026754
O         7.96122558595070    0.70626470074787   -1.16383900527859
H         7.58421469967764    0.83443274580127   -2.04420758716903
C         8.69447975581858   -3.30564327904245    1.98940188651591
H         9.14064261992928   -2.33322719223108    1.84850744504243
C         9.23940859503699   -4.20282180968893    2.88833180996081
H        10.12038464854233   -3.94665088318513    3.45551032849288
C         8.63686864023824   -5.43951582487117    3.06285923379930
C         7.49388064460874   -5.78115993522080    2.35586886880630
H         7.02568664518890   -6.73929728262319    2.51822875180355
C         6.96355006854878   -4.88311852638923    1.44845602700818
H         6.06414299754149   -5.13396241344229    0.90670073149244
C         7.56934649018644   -3.64787946177921    1.24690147354326
C         6.98261556911479   -2.64704010382567    0.31210716000070
C         6.69822208665579   -2.99750443155266   -1.01621645474848
C         7.00140000066149   -4.11135862600761   -1.86440667198224
N         6.53195983844546   -3.91168037104059   -3.06194918820232
N         5.90884041001491   -2.69748635652374   -3.08298314890389
C         6.00253529003146   -2.07833018185910   -1.86718776892325
C         7.78637692516881   -5.33699679291952   -1.56261540603874
H         8.11679542918182   -5.77785876094767   -2.49923398550522
H         8.64737829783024   -5.09647912944099   -0.94323538808302
H         7.17962233717167   -6.06989467162938   -1.03377155456691
C         5.31072278293446   -2.24297264185831   -4.26192858093149
C         5.34650175607029   -3.06408130684121   -5.38692264745209
H         5.83433893067306   -4.02223329666516   -5.31226822556276
C         4.76432743795426   -2.64222931182655   -6.56592645690266
H         4.79474835754753   -3.28333874140368   -7.43454616937215
C         4.14413942006776   -1.40525291134800   -6.63772761032732
H         3.68966693605256   -1.07818584514013   -7.56100173361561
C         4.10998207853230   -0.59145323719138   -5.51810799822442
H         3.62853441470823    0.37439852698714   -5.56650139080637
C         4.68742303644433   -1.00002431996794   -4.32947112196874
H         4.65506883302937   -0.36433690505539   -3.45970861497352
C         8.60495493708434    1.89949279035274   -0.76392421486104
H         8.96783696335718    1.73584611899898    0.24923523957269
H         9.45272311495301    2.12034498855660   -1.42164335313162
H         7.91921000707011    2.75258825221934   -0.76147063664273

