45
CSD_code = NAKQUO | q = 0 | S = 0 | Stoichiometry = C20H19Cl2PPdS2 | MND = 4
Pd       11.06554473351000    2.39974028810476   10.60829711394152
S         9.64775675118341    3.04767965599980    8.86844336918988
P         9.64558112726380    0.73515579514578   11.02762488662756
Cl       12.23438249166641    1.81168563834382   12.45518863979926
S        11.97153751727570    0.06620547680132    9.06059326453449
C        10.21105153336313   -1.77594714686083   12.20297991698452
H         9.36730404280817   -1.60310263827859   12.85590923374067
C         6.20137665716220    0.78762768118938   13.25136026321931
H         5.13336821935694    0.73710834767531   13.09748655612158
C        10.99742040737337   -2.90220660638220   12.36670933248908
H        10.75908061197084   -3.61304909754595   13.14354633785747
C        12.09468214673552   -3.11186919953781   11.54707854054113
H        12.71494865428835   -3.98452039694906   11.68436890408636
C        10.51263124199915   -0.85008637212694   11.20991864463172
C        11.61051675253261   -1.08038479008498   10.37574972763944
C         7.05446465455961    0.70196911870709   12.16456184268361
H         6.65409305798511    0.59133841493458   11.16633274342364
C        12.39578062847282   -2.20770611173331   10.54353493968465
H        13.24008718953575   -2.37235229411869    9.89185954947872
C         8.08135552460015    1.02553949697909   14.72946291756427
H         8.47700030470023    1.16140548358590   15.72481452361954
C         8.42886162208049    0.76342871365370   12.36590982214424
C         6.71111016592039    0.94312226407721   14.52993967518359
H         6.03842123698919    1.01062927641869   15.37203039960690
C         8.69760554197917    0.51659501119614    9.48578737403302
C         7.98846825527946   -0.64804726708303    9.21126802529491
H         7.97003848795008   -1.43849227492794    9.94899556654112
C         8.75006650387924    1.53098052249731    8.53057112533662
C         8.94144158274873    0.94418678114913   13.65151441676689
H        10.01376738166074    1.02725909508196   13.78341726415100
Cl       12.57830559802031    4.00506144320867   10.05468135986623
C         7.37721932531375    0.22512619412549    7.06321683947577
H         6.86303102475760    0.11407428535766    6.12081051760253
C         8.07996523852332    1.38818107306529    7.32530878352358
H         8.10913521348875    2.18201263184997    6.59500224302785
C         7.33073554621090   -0.79270854782419    8.00371992424860
H         6.78434062356270   -1.69939637977184    7.79284571467803
C        10.77311260114821    3.08194062791341    7.44005390354026
H        11.13272239574192    2.07554066731261    7.24019152059342
H        11.59825021809923    3.72786194774047    7.74202243090250
H        10.25627325650664    3.49569856791631    6.57911874420218
C        13.64284515554056    0.62589054863055    9.53305784651166
H        13.67925305750017    0.72236383151510   10.61713587087934
H        13.77757215532488    1.60377692195428    9.07131714620897
H        14.38479356342765   -0.07821667890576    9.16806223781602

