47
CSD_code = NAKTID | q = 0 | S = 0 | Stoichiometry = C23H17MoO5P | MND = 6
Mo        3.03803704720419   10.04674711673517    5.18820115187146
P         3.59962273378777    8.35137031866011    3.62194122891997
O         0.32151631310424    8.58759567439925    5.55286269413663
O         4.33707504760058    8.25789234523929    7.36719048972810
O         5.75438571500441   11.51428884054073    4.86145932330923
O         2.22047116150535   12.21145363761124    7.24866882346651
O         1.87321098592310   11.66228816805743    2.80701532299310
C         4.34215192584068    8.74582227594068    1.95835078170713
H         3.79995297781813    9.40968903604524    1.28539903206170
C         4.61188337577520    7.35657121641035    1.44586758470066
C         5.10152124374178    6.55974639137220    2.48786137376769
C         5.17926305558332    7.37496299687141    3.75074495383445
H         5.38457875685568    6.82528007211286    4.66918756301420
C         6.12760395982139    8.53717819113518    3.47829388546748
C         5.66351767869202    9.29746085623345    2.47858391757547
C         4.45469115128505    6.83963091030019    0.17982634604803
H         4.07356111177779    7.45063581615863   -0.62532945746193
C         4.78793308818851    5.50676773972307   -0.03906003519736
H         4.66256317395948    5.08296817503807   -1.02412913809834
C         5.27316119072701    4.72054932809050    0.98934595157428
H         5.52424237044808    3.68740554585225    0.80154244323763
C         5.43841496334585    5.24329917783052    2.26789779646196
H         5.81502205703084    4.62527382373211    3.06996949169570
C         7.39946793906323    8.64297141530301    4.24379425207652
H         7.93050369813579    9.56030871272921    4.00595016279025
H         8.04526111445862    7.79490910599606    4.01296482469021
H         7.19434964412217    8.62558865436161    5.31475173062281
C         6.28014799562497   10.47813714192368    1.81459450149572
H         7.17010932119323   10.81019154615109    2.34174036660018
H         5.56768051821921   11.30284847221295    1.77700581334169
H         6.55452271141576   10.22600334042905    0.78941463804352
C         2.30545446312070    7.14305894749409    3.26420330959449
C         1.28934575324714    7.50500738805390    2.38534787124137
H         1.32252759549044    8.47789899600787    1.90774845764222
C         0.25138906942124    6.62812476155912    2.13422146235604
H        -0.53637203943834    6.90398646931540    1.44866878872564
C         0.21933872680715    5.39604195154895    2.76862183262036
H        -0.59355786168014    4.71245447281991    2.57376419172057
C         1.21994484140454    5.04188316842263    3.65889250572346
H         1.18453835029687    4.08485148935891    4.15838998180123
C         2.26254012015285    5.91443047426698    3.91231789829533
H         3.04399890981025    5.65167336600022    4.61362206706799
C         1.31341681072649    9.13201370362535    5.42897026194394
C         3.84151628962225    8.93185366389215    6.59375704926251
C         4.76922453328086   10.95013690542607    4.94872043441110
C         2.52616464287932   11.41983604343792    6.48883519106762
C         2.28620576760376   11.09121215557521    3.70251088205145

