60
CSD_code = NAKWUS | q = 0 | S = 0 | Stoichiometry = C21H26F3MnNO6PS | MND = 6
Mn        2.53233466092738    5.38544813871018    1.06631433021282
S         4.75651511921248    5.66521938756243    3.17683463256024
P         2.17984043779976    3.15282984265130    1.49601396794050
F         6.96322333950894    7.18221428151257    3.33738163189719
F         7.10839345540226    5.51007409439745    1.97777924204879
F         5.99244203231733    7.25895576944402    1.41138008527091
O         4.28421135751299    4.85816888116287    2.04018170178476
O         3.86525563948339    6.75010043097845    3.47450279976576
O         5.27800793618961    4.88254727417560    4.25198311937103
O         3.30240189800664    8.19774980440360    0.77871409856058
O         1.00185707961438    6.45745996064723    3.32308538855386
O         0.18352944185525    6.04661914760672   -0.55028699957085
N         3.75334848657085    4.55477952497175   -0.76736842139560
C         4.85367321197610    2.30791288915114   -1.46309779383295
H         4.63114935659602    2.40362458967035   -2.52839736747174
H         5.90463548934686    2.57032435453522   -1.31824930820771
C         3.94333981238007    3.14343601075720   -0.59787189547870
C         3.30037827951245    2.37688765284360    0.30898142687365
C         3.65905421763612    0.97711860045447    0.09525175772807
C         3.24087257708166   -0.18968244130002    0.71618978567714
H         2.53009806574845   -0.16609914739282    1.52756622945660
C         3.75986289730265   -1.39670581532778    0.27778286200994
H         3.44428222677212   -2.31401346059758    0.75170222313733
C         4.68012898665831   -1.44485045387471   -0.75862071578609
H         5.07231631223520   -2.39749877975452   -1.08067595978512
C         5.10028653508301   -0.28127397834625   -1.38716459844248
H         5.81534457828296   -0.32067689057083   -2.19558590060799
C         4.58169790779329    0.92283147071676   -0.96054739159100
C         6.29069655821596    6.46476185349715    2.44737642831279
C         3.05846897454998    7.08374732896360    0.84771155889059
C         1.63659649614997    6.01243575217417    2.48318480097696
C         1.11135671841170    5.73011216144829    0.07108519622021
C         0.56981295269622    2.29795548900664    1.07756168902568
H         0.65849970252759    1.24202349220782    1.35762309421687
C         0.29538935150131    2.38691401711319   -0.41903422398198
H         1.07425800471343    1.88635327273657   -0.99185286965385
H         0.23619709574553    3.42930911967606   -0.72771146190019
H        -0.65523847257181    1.91037911482659   -0.65145983798947
C        -0.56268655461482    2.94603368309043    1.86731272034070
H        -0.46109045604217    2.75676468184848    2.93325162125730
H        -1.52312509616121    2.54759569743820    1.54507014299195
H        -0.56212789475712    4.02507596675027    1.70045840135368
C         2.57737340993459    2.38558453141142    3.15428662135050
H         1.94515038212442    1.48723702587270    3.22085335935330
C         2.17609323219258    3.35237294394941    4.26847871868380
H         1.15055378187457    3.70129121913744    4.15427666578010
H         2.83973740388292    4.21706193855167    4.27400544168057
H         2.26747797647687    2.85985426169220    5.23540852901593
C         4.03981557421929    1.98190847946450    3.32185897849460
H         4.38123890756446    1.32645265677385    2.52388591277894
H         4.15461442487470    1.45435174808655    4.26783982338669
H         4.67763507655721    2.86094800952361    3.35711154027181
C         3.03705995961366    4.78823047436810   -2.03631119547257
H         2.81485071820089    5.85001760049062   -2.13794610068613
H         2.10308663463657    4.22868002005964   -2.04638408563263
H         3.64576965152139    4.47712353559499   -2.89432313251864
C         5.06201563617299    5.21873348057111   -0.85992371370956
H         4.92548465676383    6.29903753230108   -0.89380861222772
H         5.59953686810176    4.91006764667401   -1.76476440411301
H         5.66211698624790    4.96448412548831    0.01109946289028

