51
CSD_code = NAKXED | q = 0 | S = 0 | Stoichiometry = C20H25MnNO3P | MND = 8
Mn       -0.04321062044957    3.16176561588547    4.09959255221743
P         2.10605670632598    4.11449214677476    1.07989200331560
O        -1.37843466973429    2.06909114767214    6.46872384392963
O        -2.49527094170060    4.31193228995535    2.95546717871048
O         0.89462388869962    5.58559430371953    5.46575435544018
N        -0.38009004031911    1.94606714824913    0.95651628905060
C         0.21909625494344    1.22020944160871    3.24051094016593
H        -0.35346686008380    0.30263457438859    3.26560919707936
C         0.33983408777686    2.08195855184011    2.10352686890263
C         1.36355461849273    3.06277793088237    2.39824030640674
C         2.04392815564105    2.60721997096578    3.60906175131360
C         3.24838748928170    2.98410228097618    4.24459832089312
H         3.81419245331836    3.83648275439183    3.89994540551173
C         3.71613143019588    2.23857006567771    5.29528758438644
H         4.64280023284748    2.52073643267587    5.77290421493383
C         3.03361390379276    1.10159556071076    5.75931034865095
H         3.45306458459983    0.53442070361231    6.57661933549957
C         1.85950992219366    0.70165358790764    5.17935994628460
H         1.33800437893104   -0.18469816166771    5.51458800792513
C         1.34335640555794    1.45299186470818    4.10443985935713
C        -0.87439903569070    2.53402211119001    5.54845090599620
C        -1.52905564215747    3.87356200058037    3.41043682305259
C         0.50066555056047    4.65657794445518    4.91572108239634
C         2.38985713799873    5.68897339928954    2.08195256423654
H         2.62462185056645    5.42261046598223    3.11787753711655
C         1.06936339243576    6.45765802247696    2.06209683677697
H         1.14210834656985    7.35148381315246    2.67857788021306
H         0.25258791781581    5.84663800321811    2.45493878071590
H         0.82270620270088    6.75773225609125    1.04462940696082
C         3.50584162874004    6.55903423155938    1.51822905202211
H         3.56310284053842    7.48769794801012    2.08499664762250
H         3.30617212577144    6.81156375425145    0.47793457816095
H         4.47382844125036    6.06670388702117    1.58246020902139
C         3.82745734627677    3.33584946412537    0.95716385142250
H         4.46858435009097    3.66112095690439    1.78263858186473
C         4.42851063175181    3.80136825218109   -0.36937410838638
H         5.44455776697251    3.42418729225447   -0.47898905279782
H         4.45654492426490    4.88559124494290   -0.43999843991288
H         3.83196732229267    3.42465023798881   -1.19895802488935
C         3.72839814684430    1.81223088690360    0.95078088904232
H         4.68961383323423    1.38072986122701    0.67351998587496
H         2.98578145569553    1.48365221907225    0.22327367330190
H         3.45516948087316    1.41580808735539    1.92646799099041
C        -0.64117381111399    3.09795382271967    0.11693155037596
H         0.08032189423703    3.15135806321642   -0.70161401362837
H        -0.58374125257575    4.02417854134918    0.69565706617132
H        -1.64322618709599    3.02374897630165   -0.30267913553863
C        -1.39112003777327    0.91175653092006    0.91201487730823
H        -0.95602537043840   -0.04917440848613    1.18624457596442
H        -1.76419415815820    0.83020899368042   -0.10655317721962
H        -2.23130847279034    1.12942492912787    1.58492229578894

