41
CSD_code = NAKYON | q = 1 | S = 0 | Stoichiometry = C10H25ClN4Rh(1+) | MND = 6
Rh        4.85041626183661    7.17242910239843    4.17191822550342
H         5.08073392183616    8.41436399105966    3.34093247423053
Cl        4.34914941051679    5.22811723029710    5.53822177166587
N         3.01477167676355    6.82861441001368    3.36251924772099
H         2.70550285994169    6.05272569632274    3.96494693025372
N         4.10488903980110    8.22350722972655    5.74728508655857
H         3.78946346718658    7.44278736130833    6.34025397156674
N         6.68320554240654    7.45317327057578    5.09211958326942
H         7.17270662993143    8.22473583944825    4.63033350658435
N         5.55047711766174    6.00402974249198    2.61354367408224
H         5.91613884336535    6.61470983447433    1.87764268666538
C         2.01010915965832    7.89204437958995    3.44604464869126
H         1.05852546586712    7.53101603835352    3.03674118614125
H         2.34657616121463    8.73822278196089    2.84021259663999
C         1.78140260593285    8.34199936481097    4.89105333040848
H         1.54739605123861    7.47096152760252    5.50885455439112
H         0.91115691624959    8.99840847643374    4.90496595566200
C         2.95637960594438    9.10223124054608    5.51083269858065
H         3.26859947125391    9.91308901072073    4.84650508173430
H         2.62793639242784    9.54133339755467    6.46095597726906
C         5.22613592830183    8.87345457249031    6.43886239500379
H         4.94885165199880    9.17024322822401    7.45670196988450
H         5.51077314837543    9.76976047487888    5.87803658127311
C         6.38432606062741    7.87670387409561    6.47161649864339
H         7.26422274891778    8.31458624585095    6.95461951003298
H         6.07914811700735    6.99000718320646    7.03582426987795
C         7.56782897851881    6.28127952287222    5.04402021240143
H         7.09239265294965    5.47614832911327    5.61023957327867
H         8.52481696535960    6.52251854457896    5.52215104489355
C         7.82180776527952    5.80837874899389    3.61132239890291
H         8.66078646157466    5.11255493358493    3.63457711393359
H         8.11108176892105    6.65556218229148    2.98285098997220
C         6.62790860761349    5.07962622904144    2.99149166131416
H         6.96111974632663    4.52152729566176    2.10832427404686
H         6.22353878734152    4.36880451808331    3.71673229247565
C         4.37325781410358    5.30433621203107    2.06911284753794
H         4.12331105190877    4.48687404914924    2.75243311647888
H         4.58096152418396    4.88354192072040    1.07964613156639
C         3.20277869152743    6.28541950639284    2.01064881676038
H         3.43261362334909    7.11216099365667    1.33046183752291
H         2.29800130477884    5.77981150939243    1.65464327657943

