88
CSD_code = NALGUD | q = 0 | S = 0 | Stoichiometry = C45H34ClN2O3P2Rh | MND = 4
C         4.36676965865685    0.80307445850608    0.34938499250820
C         3.29235789549190    0.22004499829989   -0.32073748476907
H         2.86052805584669    0.73310015065719   -1.16289246430296
C         2.77934998778567   -0.99454192743993    0.08925708239522
H         1.94332039473976   -1.42148576605626   -0.44367755343698
C         3.31679283532050   -1.65300653847876    1.18180642040061
H         2.90343624082182   -2.59228188459705    1.51570201983601
C         4.40461924385221   -1.10407670132925    1.83459980624713
H         4.85446629308138   -1.60793615533212    2.67730774352733
C         4.94707926981384    0.10043919663872    1.41362394224289
C         4.62238823911103    2.73483514276596   -1.14833549446823
C         5.06414259682234    4.16412351153180   -1.12984321721119
C         5.89382047161471    4.58779363368481   -2.16061495520868
H         6.20293970048841    3.86593425348364   -2.90223767906083
C         6.32491851603430    5.89951241502727   -2.22863626575919
H         6.98401268584913    6.21191796037073   -3.02469213583860
C         5.90801273114243    6.80716727520687   -1.26956816693000
H         6.24374420626769    7.83311976752729   -1.30949129378294
C         5.05478432289389    6.40368130017259   -0.25949613502053
H         4.72572390059027    7.11931975340554    0.48133541425630
C         4.61099539900712    5.08626523687406   -0.18062179486818
C         6.05013252419630    1.17278698250030    3.29528782910530
C         7.32339366480189    1.47280079130152    3.97408727899318
C         8.50159128637044    0.76972335557948    3.75303682167390
H         8.51376213660498   -0.06670500827207    3.06855566538937
C         9.65178863163326    1.12357971391340    4.43299340371023
H        10.56616119392970    0.57281606490419    4.27004985667203
C         9.63178288346662    2.19168691095148    5.31662119069914
H        10.53399347246302    2.47580772405612    5.83797537856709
C         8.46379479170050    2.90144234082667    5.53438546377768
H         8.46802361022743    3.74140464513394    6.21323646117753
C         7.29111962238696    2.53889206895335    4.88409716958061
C         2.27429056654802    3.55517873732383    0.47653159908682
C         1.72649285294277    2.54323653840456    1.25708200911325
H         2.12362554572363    2.36804005075719    2.25098265478329
C         0.70223209957933    1.75845481637505    0.75967807246506
H         0.27945226522434    0.97527033040645    1.37107087517962
C         0.23102435973981    1.97148928922545   -0.52504891137988
H        -0.56689776438304    1.35810108688990   -0.91699411562489
C         0.79412297859615    2.95954768841182   -1.31731770994807
H         0.44256995256123    3.11008379629427   -2.32734749226099
C         1.81254691256683    3.75275198748934   -0.82215977779217
H         2.26207777376726    4.50980235693914   -1.45078366999629
C         2.62969725465600    6.16246039282960    1.53106326541281
C         3.09101623134276    6.97357403833547    2.56617971977515
H         3.94796937165316    6.64484238794866    3.14993926152691
C         2.46711999682179    8.17166859510616    2.85663895977354
H         2.83598633700120    8.79168729853399    3.66069651203595
C         1.36411437379715    8.56996451325071    2.11877574901575
H         0.86914889402096    9.50273569584206    2.34519273789142
C         0.89204580768816    7.76454580125663    1.09622035412688
H         0.02650047207229    8.06854020727459    0.52582313420479
C         1.51981721678289    6.56701465831812    0.79947686843452
H         1.13339443478099    5.94424767257164    0.00682593168149
C         6.31142282889760    4.99852425221195    5.89126703419179
C         6.61698388692029    5.10183454859407    7.24537490618748
H         6.51628098010078    4.23670835127618    7.88721481732095
C         7.04148367293508    6.30897961973857    7.77046281801838
H         7.27640792324901    6.38337868199097    8.82262547127886
C         7.16565248722012    7.42170190093126    6.95337102536414
H         7.49586568186676    8.36203751702364    7.36994997543318
C         6.86339462452406    7.32775554176510    5.60502485556443
H         6.95897309891293    8.19391503730230    4.96629690232528
C         6.43628414310076    6.12174192979150    5.08058103257383
H         6.19859473304837    6.03332116096945    4.02256249666522
C         4.93585035652402    2.63432180635298    6.49057874156487
C         5.27834503852978    1.35497680534376    6.90618576003374
H         6.05360503823179    0.80887257764897    6.38754698424297
C         4.62414844495055    0.77929912133618    7.98140143959116
H         4.89412344981697   -0.21646798263571    8.30277942133079
C         3.62726436898402    1.47397584956073    8.64504164063455
H         3.11830175171640    1.02072541591773    9.48307490776740
C         3.28179778691537    2.75144641760129    8.23252833538646
H         2.50310234882479    3.29512893329204    8.74728244907351
C         3.93267306674831    3.32879192535470    7.15962726504284
H         3.67186998330426    4.32762266803487    6.83381744496476
C         3.00175427704792    4.08043345858221    4.04805368074296
N         4.83182544204473    2.07640981291152    0.02650508265822
H         5.42250977955554    2.54380562486465    0.72512295348194
N         6.10781930701519    0.57451304159809    2.08600882892542
H         6.97401727122982    0.61225206558073    1.56974201049825
O         4.15480100899587    2.23355286787955   -2.15128321859542
O         4.98584355467812    1.50698106298592    3.82111426829150
O         1.99757147137892    4.20149024441461    4.59595519849807
P         3.55317817475845    4.60678220992015    1.23241942971858
P         5.72613719066293    3.46100768082751    5.07825940021096
Cl        6.58461101556956    3.86368511040062    2.00452233865466
Rh        4.57981141585505    3.93802113045876    3.14585897477036

