39
CSD_code = NALHOZ | q = 0 | S = 0 | Stoichiometry = C13H19CdCl2N3O | MND = 5
Cd        6.07093004791817    1.29113453853215    3.81645757106402
Cl        3.96798800401022    0.45796109829464    3.06205406751277
Cl        6.59545399746040    3.55719514296167    3.45535431940338
O         7.89696147789677    0.98853554047126    0.04907297378853
N         5.33522199129233    1.64860887686360    6.05985841492694
N         6.15805392402900   -0.72223380172610    5.12511232407263
N         7.51631624113816   -0.34273239315062    2.55784843038078
C         5.13799751219429    2.81589506095445    6.64492048038659
H         5.51024705892589    3.68039278553955    6.10797846401229
C         4.49257512545602    2.93680326522948    7.86866865929971
H         4.34079058847296    3.90708242256731    8.31359801413308
C         4.05549959495957    1.78258562964918    8.49732608504095
H         3.56151209033405    1.83055084341848    9.45653078712714
C         4.25580571681868    0.55941468742603    7.87706226866504
H         3.93887558419141   -0.35242886947035    8.35851851124718
C         4.89503467891854    0.52991038701196    6.63993419787830
C         5.12841457857880   -0.71303990815895    5.87273585210744
C         4.12933884587489   -1.82108757825992    5.94456015104504
H         3.65114868401504   -1.88255685959701    4.96474373196622
H         3.36145271239209   -1.64167726887028    6.68841615898297
H         4.61877353837335   -2.77478412687323    6.13996824019425
C         6.44142968547697   -1.82067990978652    4.24869100219804
H         5.58631789003569   -1.99017305119637    3.58300477364940
H         6.61240774063600   -2.74206985800553    4.82040043622377
C         7.69848323085329   -1.49705293846321    3.43893435435901
H         8.49850643227821   -1.25756270429021    4.14605386536565
H         7.99739128188861   -2.38525574194739    2.85960615696658
C         6.76391494393678   -0.71083174993566    1.35299480730768
H         5.76237250777610   -1.04109243875923    1.63235041768131
H         7.28511504036959   -1.51945771085359    0.81447388472129
C         6.63387121533215    0.50127350222902    0.42981261519503
H         6.11763632208267    0.22206880914530   -0.49025671951558
H         6.05678879383873    1.29135996063510    0.94467109563393
C         8.63313447503975    1.36711739318513    1.18730237501621
H         8.12274358736253    2.18713905113066    1.71707435308609
H         9.60153298910253    1.71808708321375    0.82601628165784
C         8.81964674660380    0.18125379083965    2.13641332047328
H         9.39027863124628   -0.60514371969012    1.61442976766016
H         9.37993649288011    0.50729075973639    3.01660750907495

