67
CSD_code = NALHEP | q = 1 | S = 0 | Stoichiometry = C19H39N4NiO4(1+) | MND = 6
Ni        2.58696279156297    2.25818579630307    3.06111078440606
O         4.08044195571958    1.75444623434023    1.38250542453663
O         4.23610920190323    1.50712908719022    3.54128435331534
O         5.02268364651683   -1.05276133101811    0.96066728363007
H         5.07251907822855   -1.60395009347544    0.16243043981171
O         6.90817057245398   -0.18724050497125    0.14297009924225
N         1.71838883302618    0.32711105967296    2.55763717088681
H         2.41149801480818    0.06500257955440    1.85064719981041
N         1.08509187205195    3.07287641185884    2.16002757434354
H         0.29703774379599    3.15738305219911    2.80721098483927
N         3.12417534895388    4.01852339607649    4.04748548903099
H         4.10015403416306    3.79148091203896    4.25733214625120
N         1.57239170435083    1.83553016741274    5.20203852144417
H         0.60265946025797    2.15764775964874    5.20932449250185
C         0.49719508379754    0.71329684756664    1.84149126032902
H        -0.32185407226295    0.80886388554004    2.55938493330304
H         0.20720642656483   -0.02499259283923    1.08496750750805
C         0.73478510548718    2.05208630490830    1.15731544878840
H         1.57397390468216    1.96563550760641    0.45899400304105
H        -0.16295541429807    2.33129560682089    0.59623446452887
C         1.29136035302366    4.40042032796750    1.54397891205674
H         2.06040221228721    4.28125700647040    0.77548919169340
C         0.00754102245166    4.91940587281259    0.88384830777912
H        -0.27534674663298    4.32874103363619    0.01800369312132
H         0.15948965704361    5.93774681366585    0.53893891816844
H        -0.81864715005527    4.92459492719394    1.59303532349428
C         1.74733034916344    5.44435169292430    2.57097632412269
H         1.77225184766074    6.40940958871237    2.06494978651606
H         0.99422396460003    5.51944091564228    3.35836319443170
C         3.13430952427572    5.23152062975655    3.20062671053315
C         4.20345744613143    5.02031536531201    2.12586771140523
H         4.11114738634434    4.03477731783605    1.66770096922358
H         5.19634282292049    5.09970357155801    2.56322610473692
H         4.11860476483556    5.77281296856058    1.34727134852455
C         3.49948414653717    6.47996510338282    4.01635564663284
H         4.39837441488642    6.30644534779355    4.60340369432809
H         2.69552957752910    6.77930774232590    4.68320320854761
H         3.69917039293864    7.30720904947591    3.34134257919424
C         2.43868903475298    4.13072733831319    5.34090061328133
H         1.42930227655160    4.51752442635513    5.18279500986677
H         2.97055239222813    4.81638858908432    6.00885946642132
C         2.35222445793839    2.76551934010006    6.02333162698668
H         3.35598345964801    2.34770520825630    6.13431300417842
H         1.92013502766324    2.91353281578351    7.02112616365011
C         1.56364234763485    0.46195897853920    5.72882434861256
H         2.60595517345733    0.15678284925852    5.83727208962093
C         0.87549977140696    0.36627619176326    7.09592106817567
H         1.39273519234963    0.95822055059858    7.84527021745225
H         0.87244053209905   -0.66329177417310    7.44058634320909
H        -0.15693135962828    0.70645945459515    7.03261971287396
C         0.84671178798042   -0.47867347136601    4.75153395656532
H         0.65735798707181   -1.41451205015202    5.27728404725110
H        -0.12837353201885   -0.05083594065167    4.50923113316440
C         1.58757742422228   -0.84788318943521    3.45393767305656
C         2.99408397692630   -1.36736196886916    3.75360825103079
H         3.62753073139148   -0.56878062799239    4.12441551054158
H         3.44736704120428   -1.76977086052884    2.85055566320265
H         2.95245909785021   -2.15655295315909    4.49839169152706
C         0.80918964225601   -1.97647984814574    2.75763789246468
H         1.21546048480061   -2.16969775292884    1.76717725140941
H        -0.24982012268867   -1.74926768124787    2.66792438295070
H         0.90405303889669   -2.89029598637337    3.33685019056169
C         4.70863161437117    1.34968784156438    2.37192516117000
C         6.05053392497142    0.65431093321609    2.23380338768892
H         6.84251871165260    1.39980813742065    2.14545394566449
H         6.23078142657699    0.04162090491637    3.11838972156727
C         6.07164718073198   -0.21549481619926    0.99491926979667

