67
CSD_code = NALKIW | q = 0 | S = 0 | Stoichiometry = C20H28N12NiO4S2 | MND = 6
Ni        3.73236468403002   12.17320888154143    5.45375785207641
S         6.50320460536586   15.45122470025600    4.16441622948595
O         5.48936924659270   11.09034661473969    5.37954001154505
O         8.12356497879387   13.97597889843142    2.95455521882836
N         4.80726019827913   13.89004592259074    5.31854301299315
N         6.39658114989868   11.47325074312041    4.53064067046221
N         7.65978294781945   12.86798521007706    3.36759147011865
N         3.85210854899994   12.19131186389104    7.31895470372166
N         4.44329254526210   11.43783943318692    7.99423574056577
N         4.93782273815301   10.78754181635588    8.78199472402433
C         5.11135554084355   16.11713929561558    4.92944071935666
H         4.93006089334312   17.17215440393692    4.92919170254254
C         4.33055186098514   15.14761789465454    5.47165292958434
H         3.39328466868810   15.29100461138359    5.97613441873354
C         5.94795162411527   13.89618993512385    4.66241575827994
C         6.67611175819563   12.75643487460263    4.24731827973981
C         7.02023116513934   10.61453791217495    3.50660413728696
C         8.19595008548153   11.53214020239178    3.04335020596491
C         7.44396924254480    9.29108768295752    4.12978853178443
H         8.04478408755360    9.44401718309262    5.02060417415989
H         8.00672265007631    8.70134663833026    3.41157634065091
H         6.55778490826645    8.73337404353178    4.42094692055187
C         5.98426030660277   10.36810849158547    2.40575231675766
H         5.08948788135208    9.94061950724508    2.85250366851802
H         6.36815606747870    9.68045319925670    1.65789384823839
H         5.69283370106370   11.30063114854597    1.92859540375885
C         9.46367780586681   11.36742611142685    3.88841491557427
H        10.14838366388027   12.17854026292059    3.64898383530891
H         9.95357274359990   10.42316842922806    3.67083956873022
H         9.23324951372220   11.41811953126962    4.95007519679108
C         8.54821892265812   11.46212135351806    1.56473550465752
H         7.69373494144661   11.69447858631137    0.93723108436767
H         8.91962546032952   10.47263383383465    1.31382806464463
H         9.32399925683265   12.19497666993592    1.35613502166778
S         0.96084767721063    8.89480465138598    6.74157087515262
O         1.97536711493725   13.25592053821264    5.52742209177192
O        -0.66017750732189   10.37009401043884    7.95087440888188
N         2.65768788058931   10.45613519194742    5.58898517785606
N         1.06759371970008   12.87284723005697    6.37563979160505
N        -0.19617208230538   11.47805434906146    7.53802981341852
N         3.61234425538540   12.15494850806838    3.58855215535241
N         3.02678904737171   12.91250403639405    2.91292494136397
N         2.53643723236795   13.56583229913793    2.12500988243549
C         2.35362689850706    8.22904850338429    5.97809687921757
H         2.53497478168642    7.17404327330804    5.97845188826865
C         3.13463983734757    9.19862348756677    5.43626938877172
H         4.07236129433506    9.05532911114590    4.93260543367230
C         1.51653111736673   10.44992654951954    6.24426151044474
C         0.78802864167794   11.58962779203507    6.65889902072758
C         0.44347619991822   13.73145155849900    7.39951631664818
C        -0.73261257239279   12.81390337121870    7.86189486689186
C         0.02027137327448   15.05508166865073    6.77637998221751
H        -0.58082150355065   14.90247174964051    5.88569658540983
H        -0.54201784994436   15.64514106174155    7.49469657020028
H         0.90669352647181   15.61230869697915    6.48500547132968
C         1.47895160968902   13.97747354830255    8.50092947308435
H         2.37395938908103   14.40501920591383    8.05469570442114
H         1.09481789034894   14.66491504024215    9.24886055101849
H         1.77008494638674   13.04473949813437    8.97786000486399
C        -1.99977362924526   12.97869518805207    7.01597582119950
H        -2.68463352295502   12.16753319902620    7.25480347638919
H        -2.48986735950201   13.92290447837959    7.23332848164421
H        -1.76861160143591   12.92816168253641    5.95446808392752
C        -1.08592906379634   12.88389051336873    9.34026290386005
H        -0.23183621628757   12.65175391026700    9.96838014149105
H        -1.45774752950842   13.87329764093995    9.59088283404275
H        -1.86169438866889   12.15086256937580    9.54832729094796

