135
CSD_code = NALPUN | q = 0 | S = 0 | Stoichiometry = C72H50N8P4Ru | MND = 6
Ru       12.27519365947671    7.98393472599558    4.33580226815230
P        11.99368430105468    6.38141904056743    6.02124060564666
C        13.28646462762101    5.21898431925857    6.58457867390151
C        13.00551956392174    4.37213828992141    7.65740052132693
H        12.01813667210224    4.36867933737986    8.10085028310826
C        13.98005317421060    3.52496711536765    8.14474659691408
H        13.75610893996759    2.87479571403329    8.97781110479119
C        15.24403864211658    3.51026610367051    7.57337837403097
H        16.00662517808952    2.85469676987151    7.96557829390852
C        15.52473714886048    4.33584508530134    6.50041710714783
H        16.50567217710613    4.32731038403033    6.04726312674477
C        14.54657518260404    5.18246433659912    6.00678363141866
H        14.76342138866279    5.82726851017100    5.17026908937012
C        10.55490433514414    5.26453320101747    5.93897436327841
C         9.26825459601969    5.72592667741934    6.20517511283359
H         9.10563998235074    6.75793652192615    6.48697635980771
C         8.18779737504392    4.86904595185245    6.10278205782489
H         7.19601104312766    5.22058281027672    6.34835384712702
C         8.36936861645812    3.55843659475739    5.69459762241423
H         7.51874037920207    2.90070553303807    5.60435636451341
C         9.64264963871895    3.10139940228659    5.39827727553814
H         9.78984487879725    2.08260619323272    5.07196189094215
C        10.72893319402358    3.94640735512438    5.52473907937812
H        11.72619841844492    3.58550339173960    5.31314917187786
C        11.68033578610961    7.27465847191360    7.61414984376173
H        10.62101251411944    7.54482971618041    7.66622493582722
H        11.92675189476879    6.62159486639637    8.45587116168286
C        12.54835646134664    8.52215713456245    7.61052840533393
H        13.60039986317038    8.22102114501714    7.53755865987741
H        12.43149092888833    9.13168242965833    8.51200488783976
P        12.10746927139770    9.47995721467805    6.10674393642549
C        13.13493945977796   10.97354368730508    6.30325907538881
C        14.45336373283459   10.85160514130584    6.74071167768794
H        14.85153273393393    9.88165715233417    6.99667780708250
C        15.25975116622918   11.97045659271171    6.83912515780687
H        16.27756274150969   11.86619034579281    7.18600109543166
C        14.76603575403811   13.21912603500967    6.49693416964717
H        15.39847416703475   14.09092314463466    6.57273683868683
C        13.45800377624385   13.34555103820021    6.06025314882860
H        13.06685513069565   14.31705563404253    5.79616460685796
C        12.64427250301305   12.23108399033316    5.96182960081828
H        11.62413346189286   12.33943598746498    5.62154949768004
C        10.45423531003649   10.15138939172049    6.50645050249588
C         9.73689386098571   10.70279943985548    5.44721352599166
H        10.17424610064569   10.69795589260324    4.45885805297996
C         8.47987160767564   11.24258776301554    5.64531627120335
H         7.94359214634875   11.67114546655554    4.81031437532897
C         7.91356802601202   11.22540742083196    6.91021079184960
H         6.92622770357827   11.63274098084310    7.07062701365674
C         8.62061764455451   10.68267831862093    7.97041193222704
H         8.18439255447504   10.67166951530368    8.95841194677377
C         9.88616953954452   10.15503327176435    7.77657312241920
H        10.41780750535079    9.75538020005711    8.62686677354553
C        14.24045649043777    8.04827235782540    4.62307753205959
C        15.44569688613442    8.12711772834196    4.82201870135810
C        16.80705258365305    8.04099660543051    5.09414403715223
C        17.26643103389717    7.79643570115734    6.37839822641992
C        16.34557152408732    7.62832406371992    7.42163381839634
N        15.55563736384781    7.50765683708761    8.24904793455279
C        18.62867560634593    7.82225396814316    6.71626193039737
N        19.74081059223563    7.90030945475775    6.99356600970773
C        17.70412605282135    8.15395708844343    3.96163450400778
H        17.50085187015233    8.94088420390907    3.24426261667736
C        18.70017550414734    7.27011050704978    3.71859730558172
C        19.52304886983450    7.39002071402695    2.57438406998208
N        20.17067161480064    7.49370882317664    1.63497026677689
C        18.89482714301178    6.10488385301227    4.50100597201069
N        18.99225380041922    5.11501928107288    5.07017208911767
P        12.55671811355991    6.38148744528446    2.65025390072605
C        11.26387893712248    5.21903222474992    2.08705319850453
C        11.54482782362287    4.37214176721853    1.01425826455991
H        12.53224541420946    4.36860689333001    0.57088495707081
C        10.57027032904091    3.52502875517617    0.52685213445839
H        10.79422896441061    2.87483577709469   -0.30619226522705
C         9.30623781837857    3.51043610151794    1.09812242570730
H         8.54361772173654    2.85494513534257    0.70585334079884
C         9.02553169195336    4.33604058939913    2.17106018787999
H         8.04455264544230    4.32758310152753    2.62412729135414
C        10.00371815122950    5.18260360447050    2.66475571089879
H         9.78684488543282    5.82742698312831    3.50124426663494
C        13.99559251033536    5.26475171083858    2.73235019193236
C        15.28214099963325    5.72663230718234    2.46651521265121
H        15.44443210397650    6.75877538262997    2.18499891605058
C        16.36285371126319    4.87009942733888    2.56898715230683
H        17.35457364109898    5.22200768527118    2.32369291604918
C        16.18162236647523    3.55935965354171    2.97691052693794
H        17.03245246333983    2.90190447520399    3.06725057606773
C        14.90842731012262    3.10183425856737    3.27284063368615
H        14.76150133732565    2.08292850891663    3.59892377698373
C        13.82188421065531    3.94649587334701    3.14628451324606
H        12.82469462704886    3.58521532301859    3.35758735347052
C        12.86968267381579    7.27466974456321    1.05720715047631
H        13.92904726326121    7.54456918489043    1.00466198141148
H        12.62272450825646    6.62166358289051    0.21559737686473
C        12.00193631468463    8.52234395692483    1.06115503164947
H        10.94985264352202    8.22139838694323    1.13436588885863
H        12.11867712278579    9.13189761257670    0.15968551573785
P        12.44326850869808    9.48002931065156    2.56489493616213
C        11.41601950599319   10.97376113911614    2.36826017187018
C        10.09752607102757   10.85196602126124    1.93096737490990
H         9.69905370785647    9.88199282230063    1.67556801091023
C         9.29147106555702   11.97100480770121    1.83195256626551
H         8.27361531470886   11.86684738623229    1.48517311128777
C         9.78558489570868   13.21971713913780    2.17341048345433
H         9.15341846813933   14.09166707237523    2.09709842806884
C        11.09364367900343   13.34598189537557    2.61005866290005
H        11.48506668252950   14.31751048181639    2.87365174808012
C        11.90705189718396   12.23132858667404    2.70906348482448
H        12.92722626647790   12.33954049298867    3.04928598347571
C        14.09649115939078   10.15134399894036    2.16495076206356
C        14.81422090503650   10.70233505409982    3.22413601588976
H        14.37718413743341   10.69723503563836    4.21262704491105
C        16.07122691064575   11.24207390823380    3.02578891730293
H        16.60782566206320   11.67029741706692    3.86076011469544
C        16.63706336216975   11.22536351910817    1.76067853632216
H        17.62435542125235   11.63272827058535    1.60005526436264
C        15.92957999068125   10.68312275739917    0.70051679356459
H        16.36541425415498   10.67254842652025   -0.28765929789796
C        14.66408242647680   10.15545330897362    0.89462083126907
H        14.13211078275780    9.75611918663331    0.04438565944000
C        10.30997510168051    8.04839087012161    4.04876612149285
C         9.10472436357150    8.12746270770335    3.85017810709622
C         7.74336299216378    8.04103928953270    3.57832284036236
C         7.28374668341126    7.79666669608179    2.29414412421487
C         8.20424330867571    7.62861376701211    1.25058100974883
N         8.99437750350661    7.50829044206883    0.42330319554207
C         5.92134095405864    7.82254471601986    1.95691697374229
N         4.80936849530720    7.90051017199849    1.67888825534241
C         6.84647025511154    8.15342069867510    4.71100562686582
H         7.04975409023663    8.94002888867997    5.42872845518478
C         5.85058498856539    7.26935268451905    4.95376727687280
C         5.02776582892224    7.38846920405224    6.09812006533024
N         4.38014871669092    7.49145041158997    7.03761897736596
C         5.65574769715403    6.10444164106195    4.17091066471065
N         5.55759624719402    5.11471237834010    3.60159792286672

