96
CSD_code = NALPOF | q = 0 | S = 0 | Stoichiometry = C43H37B2FeN9O4 | MND = 6
Fe        8.75059646887239   19.54596696717694    2.43039429968640
N         6.87116082136377   19.52590405389954    2.54880062590995
N         8.48977918140974   21.35357891157788    2.89138513840079
N        10.61874345761018   19.59699226140047    2.22087580197538
N         8.99603601348211   17.76577618330191    1.87574469168449
O         6.11921909112882   18.49167263629886    2.17889654068471
O         9.46076596752442   22.26399963949531    2.88595540235376
O        11.34894375040983   20.70290184240037    2.32774438931065
O         8.00015793763032   16.92434597812066    1.61548344163508
C         6.31602092489000   20.64466507543752    2.88809636013410
C         7.26222739821645   21.71317056651969    3.08818902348646
C        11.16289315104604   18.49737869275441    1.80360655325648
C        10.21767624109521   17.43092963659897    1.60215864633116
C         4.84477927400555   20.84599385834475    3.02572345824480
H         4.33142369374831   19.90910569931308    2.82503715931968
H         4.48962770592151   21.60619631821544    2.33200408212807
H         4.62209556277503   21.17448311176134    4.03896959480865
C         6.83834462629969   23.09705277385401    3.44769467578330
H         7.71509540751919   23.73474709675660    3.52662676845402
H         6.31686333056554   23.07401891471634    4.40262704122613
H         6.16306208443508   23.50450219617439    2.69733641036053
C        12.62136928802688   18.34514422443009    1.51754508159123
H        13.13049327100523   19.27602538802456    1.75530286802438
H        12.78527886539167   18.10837759738366    0.46740259176611
H        13.04169484186039   17.53856128484136    2.11573295834371
C        10.61878504574145   16.08594282890252    1.08997223034666
H         9.73887784994158   15.44995409227014    1.03055565892500
H        11.35106622522305   15.63123884948945    1.75486968307507
H        11.06553256377457   16.16822298253243    0.10035675077209
B         6.68186429297533   17.09409391648799    2.37133638754843
B        10.86354981477037   21.81533888348979    3.25825540715371
C         6.87415203940212   16.78506335905219    3.94620889961584
C         5.96190678717326   17.27668756630743    4.87813552549929
H         5.14994493411285   17.90264213863340    4.53688686728298
C         6.06672291851584   16.97053970691542    6.22272331235881
H         5.34332979953110   17.36302837039858    6.92519452351782
C         7.09419127378069   16.15647621295003    6.67120248119874
H         7.17751539439031   15.90991597398617    7.72034715454673
C         8.01411580773718   15.65887731001183    5.76279282076568
H         8.81858459253946   15.02415960101161    6.10651770524475
C         7.90005814347192   15.97160276038739    4.41946113615494
H         8.62095312914292   15.57042371486398    3.72051054325364
C        10.90172279467250   21.33605365276719    4.80117623356765
C        10.12298266594027   21.98093658530327    5.76037280032526
H         9.46226976111977   22.77758495729723    5.44996757413824
C        10.18804629430691   21.63251734049755    7.09720885693502
H         9.57487966091076   22.15139765401153    7.82220459079830
C        11.04212477992421   20.62302096830999    7.51069041606862
H        11.10030333923430   20.35025224863628    8.55504351875929
C        11.82334970537943   19.96630792237041    6.57393314459353
H        12.49096609729719   19.17726588278659    6.88998370723539
C        11.75075928203051   20.32311970353074    5.23871471292855
H        12.37227292813182   19.80807573040744    4.51927580954434
C        11.84381141970753   23.05589631232565    2.94416355964404
C        11.47484508008279   24.07655578979693    2.07238829933668
H        10.49181083010689   24.05091820207534    1.62340768363392
C        12.32951339656745   25.12503882208510    1.78057676547391
H        12.01562439104071   25.90675774074904    1.10193735841203
C        13.58713548738588   25.17408921576872    2.35575004861368
H        14.25837699912752   25.99066569100718    2.12999107826970
C        13.97597043280403   24.16973176391425    3.22542456256367
H        14.95528852456314   24.20191302898042    3.68229492968229
C        13.11219729418951   23.12807575215102    3.51373416074155
H        13.42221849446204   22.35338550136563    4.20010025124193
C         5.66441441414332   16.07805206489025    1.64333879806077
C         4.71592926768291   16.51944144953196    0.72519358596420
H         4.64412165439062   17.57746471652478    0.51607605372406
C         3.85975473295926   15.63868493487012    0.08772783371613
H         3.12902748211458   16.00949483365002   -0.61842199434823
C         3.93782997216627   14.28271466002009    0.35233731240274
H         3.27126437660678   13.59120915835308   -0.14346718637325
C         4.87496903334978   13.82059749472920    1.26044312222180
H         4.94097566746469   12.76312723064014    1.47556551591686
C         5.72275730990140   14.71006216908569    1.89607669142130
H         6.44462065858197   14.34065525033516    2.61001851916847
N         8.88230420321036   19.11503450918595    4.10480997505062
C         8.86937780061858   18.91177998135814    5.24723440227693
C         8.76292145730431   18.74897145858874    6.61313228151225
C         7.80026554687192   19.47058701766426    7.30998917840078
C         6.95966643589411   20.34776766583444    6.61088076879950
N         6.28088244191742   21.06159667499813    6.01923543525649
C         7.63301295593557   19.35739933995228    8.69772913257374
N         7.48164652440906   19.27735503107053    9.83281752834108
C         9.63748919385464   17.85216928621831    7.26546585051372
N        10.34384897793265   17.12686577078700    7.80144566203450
N         8.56930083378995   20.06819307876502    0.50393820943100
C         9.25832445737984   21.09391225290911    0.00322977657897
H         9.91975006825927   21.61655420799195    0.67812117837238
C         9.15544682250570   21.49565590521662   -1.31665724202476
H         9.73768036831107   22.33333276913365   -1.66550927412861
C         8.30235117125865   20.80812659469925   -2.16534754207851
H         8.19761411014780   21.09606715390582   -3.20017931616642
C         7.58896162054827   19.73901745278799   -1.64686903969147
H         6.91305066643045   19.16591431280414   -2.26092241313031
C         7.75195667012372   19.40478669015481   -0.31422937514772
H         7.20561447649096   18.57344924071542    0.10599581668626

