109
CSD_code = NALRIB | q = 0 | S = 0 | Stoichiometry = C42H54B2FeN6O4 | MND = 6
Fe        0.00000113740183   -0.00000133060138   -0.00000020089508
N         0.11077273010786    1.83915453729628    0.31819822907205
N         1.80460896403181   -0.42856240224351    0.22627896773248
C        -1.00279936428151    2.50319881973515    0.27724925884501
C         2.12279264760005   -1.68135651002897    0.11016601920162
C        -1.14040952006771    3.95000690525312    0.63110249241601
H        -0.15507045550210    4.35599935330027    0.84628916571653
H        -1.59489744637058    4.50554963189096   -0.18783022152788
H        -1.76856280784985    4.07139808866243    1.51274976906464
C         3.48648847046778   -2.23662364177946    0.37451838176439
H         4.17344967548031   -1.41414133811227    0.55786087224352
H         3.47527603503548   -2.88478283364553    1.25022169174578
H         3.83561679218139   -2.82111353691713   -0.47499198901962
O         1.20874012951721    2.43867438732172    0.79140241629389
O         2.71284163542619    0.42848886365699    0.69949322796367
B         2.55714006064428    1.89396719246168    0.37686930895206
C         2.82936453765028    2.16319577766171   -1.20263091074603
C         2.21895929042756    3.21849158756119   -1.88129105323860
H         1.49065950149348    3.82510158805352   -1.36100785374113
C         2.52894046400004    3.51050811402250   -3.19892547609706
H         2.05114831106649    4.34470309643809   -3.69558842236414
C         3.46120253255393    2.74414220309986   -3.87825423978830
H         3.70915609252022    2.97117695713330   -4.90560067055597
C         4.07707808808634    1.68713034153440   -3.22740857708869
H         4.81114490325228    1.08795107112749   -3.74912380180151
C         3.76603794699476    1.40836893444338   -1.90813665310592
H         4.26455142033228    0.59380492040053   -1.40242607430456
C         3.63077945436078    2.68607737629616    1.28894340906006
C         4.30876914286952    2.06252461482822    2.33191086396713
H         4.11815266796465    1.01658082441974    2.52309217475874
C         5.21801281507055    2.74728001736459    3.11886624805962
H         5.73232102779326    2.23625934271632    3.92196535316229
C         5.46967919150040    4.08709282616807    2.88120296544170
H         6.17919816528854    4.62645827073397    3.49332451614035
C         4.80520640611286    4.72951488584678    1.85073736156682
H         4.99639191525135    5.77619399458540    1.65619112284603
C         3.90147149946843    4.03353920717280    1.06783431238040
H         3.39540058656105    4.54506065945309    0.26160080427544
N         0.38161364327798    0.35774620917397   -2.11797683213645
H         1.17558949428062    1.00092020469571   -2.04176450957239
C         0.82629469135857   -0.80485632801874   -2.88785013899086
H        -0.00919599446024   -1.50686270618218   -2.94416516694645
H         1.64921022421646   -1.27755497861412   -2.35208386337692
C         1.29170235600991   -0.43904035589648   -4.29756966858814
H         1.60096262191606   -1.34590985087149   -4.81938739006455
H         2.15537489220182    0.22691717957109   -4.23045843136187
C         0.16828256841486    0.25761009072142   -5.05410455788410
H        -0.67286672913159   -0.42827820769805   -5.17629014481196
H         0.50698463726721    0.55971938323379   -6.04657955100520
C        -0.27306036414607    1.47355960800303   -4.25014901216012
H        -1.11382368475648    1.97073329311449   -4.73637512994643
H         0.55327973307072    2.18522449356500   -4.18500408597583
C        -0.68586300522632    1.05166287146597   -2.83951233690637
H        -0.96590206373395    1.93770792481258   -2.26995261272905
H        -1.54443491231885    0.37778573534575   -2.88908704862962
C        -2.12278998692125    1.68135396709997   -0.11016752279653
N        -1.80460582445275    0.42855999652224   -0.22628067692010
N        -0.11077087664678   -1.83915805921717   -0.31819715644787
C         1.00280136528480   -2.50320203816247   -0.27724757481150
N        -0.38161127500531   -0.35774908007124    2.11797641582875
H        -1.17558848185651   -1.00092140842727    2.04176412377035
C        -0.82628952917668    0.80485394177259    2.88785062107970
H         0.00920247130803    1.50685879009616    2.94416512076507
H        -1.64920471579579    1.27755419056823    2.35208522123668
C        -1.29169670261314    0.43903855690960    4.29757046318597
H        -1.60095384000533    1.34590875090012    4.81938882259591
H        -2.15537122259471   -0.22691644647688    4.23045985008219
C        -0.16827821138700   -0.25761536583404    5.05410407261222
H         0.67287298964874    0.42827060696260    5.17628957187924
H        -0.50698041740077   -0.55972445368057    6.04657908108628
C         0.27306098214273   -1.47356544431673    4.25014733296219
H         1.11382296992114   -1.97074205142585    4.73637275253917
H        -0.55328122668201   -2.18522783243421    4.18500192817387
C         0.68586429233654   -1.05166838228696    2.83951095213625
H         0.96590159258407   -1.93771344952305    2.26995038753233
H         1.54443747595029   -0.37779289956271    2.88908609908067
C         1.14041117868090   -3.95001113729011   -0.63109688888897
H         0.15507167001397   -4.35600472192461   -0.84627935030427
H         1.59490188713942   -4.50555116086305    0.18783610093751
H         1.76856179515769   -4.07140467688309   -1.51274575273158
O        -1.20873871690449   -2.43867991487890   -0.79139771757145
B        -2.55713862537248   -1.89396864089331   -0.37686991082122
O        -2.71283650684096   -0.42849108374158   -0.69949915099029
C        -2.82936813238392   -2.16319065580261    1.20263055627708
C        -2.21896993466173   -3.21848710179671    1.88129601612260
H        -1.49067162327061   -3.82510239421168    1.36101687948694
C        -2.52895617513743   -3.51049744578496    3.19893063897635
H        -2.05116975871355   -4.34469320354579    3.69559779689880
C        -3.46121608721713   -2.74412437124451    3.87825427477172
H        -3.70917353821896   -2.97115424551255    4.90560084362433
C        -4.07708447229897   -1.68711158954961    3.22740332402381
H        -4.81114941926765   -1.08792654190633    3.74911453604574
C        -3.76603950283697   -1.40835653204339    1.90813122986368
H        -4.26454760339710   -0.59379182342401    1.40241650134076
C        -3.63077781428069   -2.68607945464414   -1.28894372922587
C        -4.30876525960316   -2.06252777551362   -2.33191329838646
H        -4.11814645276938   -1.01658483337972   -2.52309690534962
C        -5.21800963024521   -2.74728313818336   -3.11886789937829
H        -5.73231609211129   -2.23626325635473   -3.92196862919952
C        -5.46967903645916   -4.08709485147065   -2.88120165995742
H        -6.17919870486829   -4.62646022320600   -3.49332247108238
C        -4.80520844622500   -4.72951586567121   -1.85073399228736
H        -4.99639634867645   -5.77619410486033   -1.65618542451328
C        -3.90147279499523   -4.03354021948343   -1.06783176350218
H        -3.39540369855993   -4.54506085052496   -0.26159660921040
C        -3.48648506272530    2.23662136957585   -0.37452300695832
H        -4.17344541092114    1.41413936179527   -0.55787003936294
H        -3.47526984105721    2.88478298016878   -1.25022448134761
H        -3.83561642228976    2.82110884990458    0.47498778981860

