69
CSD_code = NALROH | q = 0 | S = 0 | Stoichiometry = C18H34B2F4FeN6O4 | MND = 6
Fe       -0.76559921499998    5.98699896324962    5.98473047892666
N         0.75299778694362    6.21934719226105    7.04420196439324
N        -0.72370607243493    4.12626117319455    5.84530805179528
O         1.43290278729071    5.19824255291292    7.59647672229124
O         0.13059738038671    3.35130937095928    6.53775659447384
C         1.04701249327916    7.43233537869155    7.38656816262300
C        -1.67926731101312    3.56886518068614    5.17355538294342
C         2.16003319913574    7.80780123102891    8.30864937750081
H         2.77508995046896    6.92963108659369    8.48827722917182
H         1.76547384047562    8.15861886132215    9.26155509754379
H         2.76652974854835    8.60120123775285    7.87731822039183
C        -1.87127772723691    2.09440320441480    5.03533005757806
H        -2.74290661482453    1.76737801473692    5.60096161413361
H        -0.99193483735478    1.59016760856680    5.42788285901203
H        -2.01868834021695    1.82119218168035    3.99278997639340
B         1.46597269285842    3.94217315524802    6.80576310631201
F         2.07523998902882    4.21929798988079    5.57290077758610
F         2.17969759359771    3.03317768863074    7.51347874879058
N         0.44986179745564    6.14847133553057    4.20472992424503
H         1.18363123478981    5.48666958948390    4.45595503876201
C        -0.14469700112887    5.66555706161363    2.95671748534106
H        -0.92390717132641    6.37103078276354    2.65820959007234
H        -0.60166570283578    4.69440953121418    3.14359057247628
C         0.89241396833638    5.51808583232855    1.84242473188023
H         0.40172402524186    5.15692241922535    0.93755542101061
H         1.63598417224060    4.77698132396444    2.14478786456027
C         1.57884723416594    6.85315287162003    1.58402677908211
H         0.84709848319069    7.57777652901686    1.22092875508514
H         2.35283673586033    6.74293249945936    0.82281680401616
C         2.18432952523281    7.34826255424892    2.89115649573192
H         2.64135755029654    8.32944220400550    2.75553141343705
H         2.96097741607996    6.65412245833090    3.22058926650526
C         1.10543417030742    7.43686488488048    3.97149882905576
H         1.56539163738621    7.76530614012505    4.90285898004459
H         0.33821195643042    8.15922318470312    3.68244750574477
N        -2.28419718685637    5.75465057237705    4.92525984817391
O        -2.96410412219948    6.77575470525001    4.37298648758361
B        -2.99717019627602    8.03182590722248    5.16369727554077
O        -1.66179351078969    8.62268778460778    5.43170071922866
N        -0.80749135628437    7.84773665847429    6.12415167566278
N        -1.98106132926749    5.82552773540205    7.76472984397079
H        -2.71483274938030    6.48732598892034    7.51350117485130
C        -1.38650653722148    6.30844892088076    9.01274150178758
H        -0.60729475630626    5.60297886561971    9.31125385230036
H        -0.92954080663706    7.27959727946376    8.82586556433158
C        -2.42362070023080    6.45592094194830   10.12703118483967
H        -1.93293406970043    6.81708980096901   11.03190008345100
H        -3.16719279917551    7.19702160365374    9.82466330692405
C        -3.11004962754090    5.12085242921242   10.38543320892145
H        -2.37829907861906    4.39623299259910   10.74853600153545
H        -3.88404149184205    5.23107307535817   11.14664074781574
C        -3.71552712306646    4.62573503371974    9.07830423013484
H        -4.17255148380099    3.64455408642764    9.21393238444457
H        -4.49217708765752    5.31987068863009    8.74886693846393
C        -2.63662912706817    4.53713249258576    7.99796455097778
H        -3.09658355627383    4.20868565055742    7.06660491409386
H        -1.86940459252970    3.81477829129396    8.28702003294612
C         0.14806913346462    8.40513268098046    6.79590526120622
C         0.34008022964163    9.87959459744018    6.93412999649312
H         1.21170978232059   10.20661880299883    6.36849870994815
H        -0.53926218721342   10.38383057551965    6.54157634231715
H         0.48749050969819   10.15280601316734    7.97667012849986
F        -3.60643665243613    7.75470533477867    6.39656093442101
F        -3.71089419284106    8.94082113264565    4.45598020095331
C        -2.57821231523581    4.54166222575809    4.58289471686830
C        -3.69123566868194    4.16619556146376    3.66081691282118
H        -4.30629167782112    5.04436623601003    3.48118825149869
H        -3.29667867360479    3.81537461771526    2.70791130247300
H        -4.29773237422219    3.37279744202452    4.09215183560792

