94
CSD_code = NALSOJ | q = 0 | S = 0 | Stoichiometry = C36H52ClN2OPRu | MND = 6
Ru        8.00753911960969   11.83301637717991    0.02587160092378
Cl        8.33848932454365   13.39883267766102   -1.73912638074321
P        10.50908100979931   11.93827596705737    0.22558848370981
O         8.21377765233421    9.39480672483457   -1.68517538946396
N         7.61646829982693   10.76200658950479    1.63205971900108
N         7.79356110008437   13.36333439901409    1.35332508106198
C         8.10174289182713   10.36985863042621   -1.07889239689201
C         5.88992005538773   12.17754666679020   -0.17759485300760
C         4.95470579559348   11.39630646366268   -1.10167235934328
C         5.41147789133718   11.50164140081019   -2.55720088663958
C         3.55229475017237   12.02020851212479   -0.98999394815061
C         4.85257158012342    9.92740961113114   -0.68306102099648
C         7.45156007473203    9.44134064636299    1.76497416454546
C         7.18846730886607    8.81998719124748    2.97676653378658
C         7.07216856751815    9.56541091486958    4.13483288081991
C         7.19942130994211   10.95793208936236    4.03682776581437
C         7.06384883373653   11.84321695184395    5.14478000313852
C         7.14432329176629   13.18855584672689    4.99303673715985
C         7.37277473300396   13.77199797435039    3.71598790739604
C         7.39516365752559   15.15339065591827    3.47321131767677
C         7.56239535581031   15.59224051691884    2.17880425531757
C         7.75401963901968   14.66862944839498    1.15009594959827
C         7.46437196257149   11.50804521667636    2.76444116146946
C         7.56196499404603   12.91411735883744    2.60950600126911
C        11.31483526020215   10.59419447751275    1.24954623767117
C        10.97394198061618    9.22483944949265    0.66344372813780
C        11.62068386707646    8.10605113220139    1.47572760869870
C        11.17650488369074    8.17264967101744    2.93283759288626
C        11.51599675046851    9.53767112845408    3.52124890341426
C        10.85234253291423   10.64501386578630    2.70645902350365
C        11.12024164654832   13.49563432688779    1.08995951763582
C        12.52748797997075   13.53776407164571    1.69204842198053
C        12.65568826696688   14.79359579521328    2.55684836417929
C        12.42066194296220   16.05380057568608    1.72859845541064
C        11.06398618913777   15.99459325884829    1.03128582743323
C        10.96513999332240   14.72499146746235    0.19060541169029
C        11.48513791597983   11.94434087138220   -1.37369271329095
C        12.95726371074466   11.54356711862508   -1.26786244254412
C        13.66268762282709   11.82373205277113   -2.59426012135073
C        13.00400880976801   11.03882957505142   -3.72330839950222
C        11.52351290057608   11.39256712940636   -3.81543746229891
C        10.81763442870063   11.13371726605250   -2.48676771966328
H         5.45486229950103   12.13016416758867    0.83710481565006
H         5.83293370088998   13.22999387901724   -0.49159760533168
H         5.42478388454721   12.54226550113216   -2.87293793360995
H         4.74329054293310   10.94583714948286   -3.21249868695864
H         6.41921838560388   11.10811614112191   -2.67402978631785
H         3.17741201439122   11.94583540447527    0.02969060375737
H         2.85500250315838   11.50633666357380   -1.64922138197268
H         3.57670782668959   13.07086089432236   -1.27120986518850
H         5.80162604467154    9.41957923648659   -0.82478274014283
H         4.10066984469053    9.41451497264661   -1.28001785574729
H         4.57147117615104    9.84764061902978    0.36634453959109
H         7.53385872673042    8.84725168867579    0.86560596083435
H         7.07487495137588    7.74739689821506    2.99984972048844
H         6.87517134809638    9.10141222435534    5.08824569691150
H         6.87750357646833   11.40861627959994    6.11582158042655
H         7.02082483603984   13.84863568174745    5.83911318295499
H         7.25929684921307   15.84640014320791    4.29028919782939
H         7.54784917682778   16.64463233352230    1.94245163000477
H         7.87799351121856   15.00105536925613    0.12662871143418
H        12.40022003263281   10.73813786926687    1.21374459283723
H        11.31048878797634    9.16113365537628   -0.37203551117659
H         9.88836492049977    9.09820485277666    0.66524783521199
H        11.35196839375793    7.13855382044820    1.04707952717223
H        12.70835263283056    8.20347452391002    1.42520439761838
H        10.09682456452906    8.01378984971492    2.99109889616778
H        11.66466464137356    7.38441003164803    3.50959801233987
H        12.59997096417703    9.67774491306926    3.51503242419028
H        11.17756389812191    9.59287475325346    4.55859247343660
H        11.07557299122341   11.61369805728892    3.15758080949030
H         9.77260302100528   10.50306349243526    2.74676959729740
H        10.40975772205823   13.59937238872973    1.92606566889499
H        12.74277787490463   12.66185794520327    2.30388280046103
H        13.27341967885016   13.58891583828719    0.89791780061444
H        11.92460151745888   14.75018512600763    3.36908477771906
H        13.65046922245221   14.82720863864699    3.00757843234685
H        13.20826510587027   16.14096143262307    0.97644889587443
H        12.47582085005723   16.93504065539998    2.37142948853343
H        10.26822176835342   16.00608141260683    1.78084758661780
H        10.93513687242719   16.87151799838391    0.39397399006808
H        11.77340513167320   14.74103816108826   -0.54374428128251
H        10.02404138238051   14.68817940034551   -0.36008387866395
H        11.42289500189108   12.99367317340198   -1.68846401377215
H        13.04068363931482   10.47717377149953   -1.04938870112874
H        13.46013225630550   12.09153513600737   -0.47079369594414
H        13.60900211087157   12.89206676504400   -2.81688475945567
H        14.71791302289092   11.55083400132164   -2.51319552190410
H        13.11161200471423    9.96845185076781   -3.53058844852728
H        13.50158088323004   11.25895949328412   -4.67001000649114
H        11.04703438539424   10.80373848122438   -4.60119919108613
H        11.41450543623896   12.44717723442175   -4.07653313834124
H         9.77306405896308   11.43779497727988   -2.57945677325844
H        10.84704814470897   10.06524298658013   -2.26422243190686

