76
CSD_code = NALSID | q = 0 | S = 0 | Stoichiometry = C32H39ClN2ORu | MND = 8
Ru        6.25619301132707   11.62452226737038   18.23623065704354
Cl        3.87553345366001   11.67789840922245   18.35764280591070
O         6.38980686823540   13.30090652515149   15.81032824339600
N         5.62711098515574    8.57209586269398   18.02320018402796
N         5.66668676350556    9.52365796240229   16.10524501192941
C         6.26331485297357   12.89193631884811   20.09850476708589
C         7.15140548139427   13.46310192268306   19.15544731658041
C         8.19588092448240   12.50449557005272   18.90361654154476
C         7.96657730706387   11.37091860491772   19.75675261814538
C         6.74694649069522   11.58595850967607   20.45957260995612
C         5.13003423954468   13.58421566806748   20.78785568800528
C         7.16394507366813   14.89174435695017   18.69568935521773
C         9.47973269417535   12.80838839521691   18.18702750026981
C         9.01512626834878   10.35559401804379   20.09688331979979
C         6.28172970273573   10.84994627891068   21.68233044074718
C         6.26639802424780   12.47682862849071   16.61041520312846
C         5.93618980544819    9.74702038766644   17.41712116464235
C         5.17550946555869    7.65164285443893   17.10966875227878
C         5.19801768080789    8.25214004670148   15.90319246746533
C         5.84879345048188    8.15713384203113   19.36555508641125
C         7.08433284760987    7.58700227961172   19.67409447032890
C         7.28805517960169    7.09253544854462   20.95442119297518
C         6.28130089040016    7.13070144519732   21.90922209556808
C         5.04535786310954    7.65413241488422   21.55554028973344
C         4.80074810508276    8.16178319625699   20.28685773667378
C         8.14204915511037    7.46275215424123   18.61786471863646
C         6.51785218657626    6.61807844561206   23.29700471036036
C         3.44789912606725    8.65919743808522   19.90117882346891
C         5.87244833891149   10.41188800242488   15.01530256262145
C         7.16950560790868   10.60489186076000   14.53386328308602
C         7.34845582173317   11.41829874013555   13.42763004890796
C         6.27201258335383   12.02816924932989   12.79805987476833
C         4.99353617086879   11.80697776892975   13.29016550765858
C         4.76802257270615   10.99873150686963   14.39354450934557
C         8.33301721553999    9.97813225165759   15.23965416350841
C         6.48880712855602   12.93595534558335   11.62676979383423
C         3.39158391351329   10.78509679357983   14.93674016033069
H         5.45579522114074   13.91461710243067   21.77744550734199
H         4.27996065000592   12.91487760197984   20.91397644897650
H         4.79614554294753   14.45353542397432   20.22516958587427
H         6.15788266715802   15.30545853572628   18.66583036104184
H         7.59670203260674   14.98413758936638   17.70142019222490
H         7.76169151732954   15.49234181300906   19.38597635647531
H        10.14731487201905   13.36443922403494   18.84999201251869
H         9.30080654860327   13.41369004631195   17.30021333420123
H         9.98799453044042   11.89597287423988   17.88115829907345
H         9.70502081324630   10.79957332064156   20.81935236614800
H         9.59325435479828   10.06197879647099   19.22301082543731
H         8.57997623762057    9.46736755739615   20.54557443456780
H         6.58298278444513   11.40467386962495   22.57542629735444
H         6.71538028425349    9.85491752513059   21.73497121386311
H         5.19761400935468   10.75240120426574   21.69779355960403
H         4.88867452312339    6.66239134178689   17.40257346744473
H         4.93802337239056    7.89022970279451   14.92973926587574
H         8.24520218784527    6.65674122224633   21.20536027042717
H         4.24738266956750    7.65910938573064   22.28410029257174
H         7.87265503410849    6.67033603315984   17.91777099300945
H         9.10314738173593    7.21370463647360   19.06002081007233
H         8.23692815660774    8.38788965443733   18.05262195427235
H         6.70657933708354    7.45195905927874   23.97401526533413
H         7.37829615089752    5.95413306869484   23.32724443800880
H         5.64477690744302    6.08300222172155   23.66408779096497
H         3.50598925121500    9.66158853869911   19.47315805443348
H         2.78389455609874    8.67846152190822   20.76101755803890
H         3.01059320812874    8.01221893711686   19.14054578022760
H         8.34813678570459   11.58774129417985   13.05402267512565
H         4.15185299458081   12.28489518877516   12.81018985282352
H         8.38424483265843   10.37135553614793   16.25898250862311
H         9.26250100877287   10.20517197693622   14.72523799846534
H         8.21687140129956    8.89606007090950   15.29675237268305
H         6.59163493346361   13.96327771555304   11.97650343192625
H         5.64429698432207   12.89696668298844   10.94275859218226
H         7.39549138887639   12.66952578554018   11.08874289563674
H         3.08484697048101    9.74487349928292   14.83210669334512
H         2.67365910069854   11.41214420032144   14.41614208700308
H         3.36928154683140   11.03226946945335   15.99950048144018

