88
CSD_code = NALTIE | q = 0 | S = 0 | Stoichiometry = C37H44Cl2N4Ru | MND = 6
Ru       10.98807433200084    2.14249495041171   12.71553355532545
Cl       12.03868466748436    3.99991151591804   13.76937234921019
Cl       12.98861109300554    1.61208271374872   11.45984897143985
N         8.18442882110402    3.13127205881601   13.27999345348116
N         9.08940377384397    2.44865362459116   15.11358281558661
N        10.13717862270323    0.78329749382113   11.57646909503634
N        10.70072300457976    3.24837859417645   11.02443019605971
C        11.70760910757032    1.04264081399359   14.06223874332977
C        12.61208886431874    0.49484918861093   14.80163739377685
C        13.46241731284045   -0.73260817796791   14.52164344343145
C        12.85287080605988   -1.55978472201991   13.39100433514812
C        13.56396955529134   -1.57703814549911   15.79338472237059
C        14.84732578065302   -0.23252130356492   14.10201548995144
C         9.29787219990786    2.59739626961207   13.80210176136640
C         7.12724992036255    3.37796310103396   14.25585030596175
C         7.76607728348216    2.89332073723140   15.55110961536234
C         7.98642234082085    3.60314043811913   11.95778079524247
C         8.34234508053853    4.91939858672385   11.64594063891346
C         8.12450314311468    5.37013824843665   10.35413045963228
C         7.56133476202900    4.55288609383152    9.38215459835891
C         7.17818370159045    3.26773577202103    9.73131044254299
C         7.36820241809969    2.78043477667407   11.01724908910755
C         8.94550027781899    5.81241710291553   12.68592146110744
C         7.38261342720380    5.06204630092835    7.98525596552211
C         6.87310742683325    1.41321058825481   11.38672403707131
C         9.86190222688207    1.75509812140553   16.08559708487384
C         9.66940085507104    0.38120377820225   16.24965643116148
C        10.37098885167852   -0.28182421488339   17.24447468967072
C        11.24490146861231    0.39208659303443   18.08435506978271
C        11.37735567712980    1.76502767313493   17.93615100822609
C        10.68292557550134    2.46973488748689   16.96270935208699
C         8.69376766497992   -0.38419099428150   15.40475002927372
C        11.99017909705160   -0.33919266278182   19.15908480313965
C        10.81828953277250    3.95330339045413   16.86724307812516
C         9.82782521456132   -0.46792880295684   11.93404300141112
C         9.36054787234189   -1.41689428507538   11.05322124393098
C         9.19184919919924   -1.06949865023236    9.71470299174986
C         9.51584334565540    0.21415034269798    9.33114983236928
C         9.99828514558810    1.12570831581405   10.27203289194750
C        10.40470703801837    2.48277451836796    9.95278222666042
C        10.53856513526707    2.96154221610166    8.64866315517014
C        11.02060521943626    4.23576596652818    8.43653918047109
C        11.36023511208296    5.00139215331482    9.54363667630849
C        11.17909967396390    4.47025401734596   10.80483784135324
H        12.82956807441734    0.96995216514666   15.75488006828631
H        11.88696803223111   -1.96453826009155   13.68818984520195
H        12.71967705299003   -0.93638616307346   12.50962101844543
H        13.51028941432464   -2.38864982615614   13.13501548898435
H        14.16358234683839   -2.46568585073323   15.60416551148941
H        14.03099079613345   -1.01111320417544   16.59675531284439
H        12.57462303325063   -1.88984812571946   16.12182847616623
H        14.75783693086089    0.37882344754773   13.20752402242899
H        15.29632109801561    0.37025606102873   14.88883790950782
H        15.50430489735461   -1.07378481768393   13.88785290628140
H         6.86973644411456    4.44017788429871   14.28093708804693
H         6.22798569827251    2.81508111294624   13.98407375702130
H         7.22401913274688    2.05928817833386   16.00675978641250
H         7.86249734827960    3.68539235289218   16.29852491312160
H         8.40668887794910    6.38041911232396   10.09404078504014
H         6.71754081851977    2.62768203105855    8.99209646992925
H         9.71600064870930    5.29044474896356   13.25580682489294
H         9.38732517353312    6.69073254905895   12.22331450484231
H         8.18127371854951    6.15159177109095   13.38636399544029
H         8.35416928586538    5.15822007116021    7.50057661207640
H         6.76918529027403    4.38458066143003    7.39692264803155
H         6.91547054486052    6.04504702543117    7.99147959860448
H         7.46148759618403    0.98393448486144   12.19462214104090
H         5.83400992301642    1.47439423042189   11.71422361826309
H         6.91315260521947    0.74394816291354   10.53077642444542
H        10.22578985274716   -1.34579238462736   17.36946291664274
H        12.03325680641662    2.30658901886999   18.60307699332839
H         7.75728942291995   -0.52018565927189   15.94878439078058
H         8.48278833648643    0.13679649536131   14.47485400462743
H         9.08542045944397   -1.37270226917623   15.17599820237284
H        12.23414606416515   -1.35064183552679   18.84384630438222
H        12.90812412234509    0.18195293330122   19.41829453600172
H        11.37631074378622   -0.40608662558501   20.05760806786222
H        11.50726628220920    4.32286553137206   17.62132772084681
H        11.19793232756253    4.22715483675300   15.88135254761946
H         9.85742839866047    4.44569283457078   17.00786543101123
H         9.99001175507944   -0.70525278582374   12.97539042408701
H         9.14212643434381   -2.41382638311393   11.40077023909137
H         8.82742618670027   -1.78703133295670    8.99624933570245
H         9.40326557363651    0.51636827156966    8.30277634770339
H        10.30339141613403    2.32516384318750    7.81123124550886
H        11.15522029226526    4.61473474752673    7.43433855182025
H        11.77279245715085    5.99161643295991    9.43433179005006
H        11.45963665639130    5.04039554285058   11.68083690170452

