110
CSD_code = NALTOK | q = 0 | S = 0 | Stoichiometry = C41H63Cl2N2PRu | MND = 5
Ru        2.82758844832070   10.19586958970166   10.08185864407547
Cl        3.05825288898824   10.80762468593897   12.35238880565909
Cl        2.38382962524573    9.71306938992858    7.80436263746734
P         1.34792440710869    8.42917636337634   10.63212011297609
N         2.96099669323031   13.01613888906222    8.98218999432478
N         4.90798448463385   12.08348339809242    9.00974146559345
C         4.38981944654712    9.13237007622059   10.03061660868501
C         5.24984326774819    8.62973983226829   11.12158676616735
C         3.63877620194716   11.93936419264195    9.39685249801966
C         3.79622668990822   13.99038421366688    8.27911498970138
C         5.16372178015979   13.32175186493992    8.27913167785461
C         1.63835147501522   13.45813256576645    9.26471888298210
C         1.37262513120374   14.06663984648047   10.49564922468032
C         0.12941577945176   14.65222636351489   10.69025227779471
C        -0.82730766239661   14.67984874039818    9.68687444954161
C        -0.53373287455620   14.07681775441170    8.47223900942919
C         0.68577856308367   13.45667236961467    8.24143872387734
C         2.40651132034244   14.10888682877175   11.57484972551775
C        -2.15869246261590   15.33248655885055    9.90296262982556
C         0.95974304559293   12.80930372497648    6.91872873208488
C         6.04074500902808   11.28004659373125    9.30198633442886
C         6.57085388377468   10.44829353874644    8.31341308800016
C         7.75507893690849    9.77352500284934    8.58019795957914
C         8.42435879357872    9.92977583469172    9.78387442155112
C         7.88433045927109   10.77859847972843   10.74322679590124
C         6.70100058673158   11.46403764072930   10.52223422436744
C         5.88858165029123   10.27999880931507    6.99053606201102
C         9.70953272036881    9.20897748383115   10.05756461169452
C         6.13150726473526   12.36668231800167   11.56861231102134
C         1.13495421037966    7.71381130960695   12.34950816730295
C         0.55867364572976    8.67211940129784   13.39291459820409
C         0.39888558280299    7.95067057751473   14.73030593219926
C         1.74198343521125    7.42475230895440   15.22247488867258
C         2.34258334620513    6.48407298750433   14.18455883169072
C         2.48643778972028    7.20395122400347   12.84754159111737
C         1.30385559542782    6.93178879636202    9.51536183792882
C         2.65715649551445    6.25374384997302    9.31181410554791
C         2.55845700418905    5.26664635742954    8.15085421328128
C         1.48368978825407    4.21902871796127    8.42810822686693
C         0.13938232617846    4.88643639198396    8.70413638672052
C         0.26367621677096    5.86995931287913    9.86724355648084
C        -0.33752704168276    9.18329861841835   10.35769626099693
C        -0.91097280209773    9.07475529813548    8.94452091181460
C        -2.27382350770937    9.76330518424268    8.89137691309332
C        -2.15776285090270   11.23196030876142    9.28122363736904
C        -1.53346317082784   11.37245640316057   10.66500280761416
C        -0.18437595975716   10.66654370202779   10.71632948134330
H         4.69594214630235    8.73338000987190    9.05209082419158
H         5.11577311928770    9.18833370842602   12.04566167138116
H         6.29929181573209    8.66788459978846   10.82530188840169
H         5.01041034718601    7.57999762439490   11.30804137046406
H         3.78400340341883   14.94701184070298    8.81304546717933
H         3.41073254246932   14.15836871069451    7.27067109136852
H         5.52022054074436   13.09584168938301    7.27053247946797
H         5.93302457447830   13.91046684987359    8.78964408509623
H        -0.08351494749017   15.11978551758716   11.64131192060661
H        -1.26847644242290   14.10096474755899    7.67942778550283
H         3.35224049889146   14.49970032166881   11.20135777500431
H         2.59585408922660   13.10649227413146   11.96368334317451
H         2.07393039732656   14.73359264714504   12.39941466753979
H        -2.92876301059062   14.57330745798956   10.04131939080685
H        -2.43621230028897   15.93338139149894    9.03939884270983
H        -2.14329246717853   15.96790289252511   10.78467137212274
H         1.50576614084910   13.48612215748574    6.26021427528208
H         0.02622538015041   12.55150216048930    6.42332513396547
H         1.55013555458858   11.90114354473896    7.03936272933025
H         8.16491755244394    9.11867758921433    7.82414638235851
H         8.40185329510332   10.90925887089656   11.68279796504613
H         6.20172295355234   11.06173167660135    6.29704048391906
H         4.80633864767151   10.32979250087312    7.09829410816111
H         6.15044192251178    9.32202842632975    6.54769772183594
H        10.51717662465425    9.92355611307650   10.21162158974823
H         9.97631266629285    8.55769629191837    9.22939374129390
H         9.62318750131901    8.60754225388128   10.96147415011939
H         6.79674320611186   12.43041774774563   12.42491404783901
H         5.16949176812450   11.97863558155144   11.90614316016272
H         5.96804135316979   13.37068977606632   11.17989805248220
H         0.43855708024524    6.87197919875400   12.24073674228788
H        -0.41788115347576    9.05043194924711   13.08502919783582
H         1.23565848194062    9.51739287786593   13.52553866906129
H        -0.02263985113314    8.64039461939804   15.46460466540154
H        -0.29964950046591    7.11631243181264   14.61580177801501
H         1.61703881145188    6.90577274941322   16.17547600930802
H         2.41970595620727    8.26601736771798   15.37928460532132
H         1.69466322853628    5.61091082789250   14.06411430350216
H         3.32035919631773    6.13079837007797   14.51945623426873
H         3.14924392573246    8.06227897289827   12.96905241211685
H         2.93093939060776    6.52976814987922   12.11256604469729
H         1.04282969183730    7.38000057092444    8.54700289699900
H         2.95993382940133    5.71449320326383   10.21237470795396
H         3.41194330216360    7.01021336088911    9.09163730545626
H         3.52278463726993    4.77710420932025    7.99798047968593
H         2.31153715766429    5.81311384132560    7.23838635964689
H         1.39431013881100    3.54222499162456    7.57587727422734
H         1.77510617098199    3.62361239944070    9.29731545644112
H        -0.61124681013479    4.12797195595147    8.93923341445952
H        -0.19153791941353    5.41967114798783    7.80982593357647
H        -0.70883376168278    6.32006326798045   10.07892183943571
H         0.58288716900122    5.31703964604534   10.75371978639875
H        -1.04264602045624    8.70638867882246   11.05352679305932
H        -1.04024304899673    8.03181858119509    8.65309420694617
H        -0.23148962603041    9.54574675543232    8.22966523166259
H        -2.96159238491042    9.25698747684800    9.57523613376441
H        -2.68505266132806    9.67811414394837    7.88310345243220
H        -1.52792200346329   11.74498698979294    8.55377194568554
H        -3.14355002768283   11.70287952066805    9.26582508552020
H        -2.19456713309875   10.92313182279962   11.41218166414709
H        -1.40954629976385   12.42636032355826   10.91743701737164
H         0.24918852485294   10.78513565815373   11.71473946929653
H         0.50453697812769   11.13385326452196    9.98258935442086

