45
CSD_code = NALVUR | q = -1 | S = 0 | Stoichiometry = C23H15O5PV(1-) | MND = 6
V         1.99401892873299    4.51823472308227    3.12829789391628
P         1.25935472824666    2.82770045958189    1.80380354715509
C        -0.46302480887171    2.72950089212265    1.15567468716522
C        -0.89695863353276    1.69177784213059    0.33429904882744
H        -0.21503307008330    0.89342318467054    0.07333741216084
C        -2.19533219255525    1.67596692095607   -0.14021746271410
H        -2.52866628393807    0.86508389729351   -0.77454572938460
C        -3.07148969017240    2.69682262649081    0.19447219791390
H        -4.08659164738294    2.68125412925208   -0.17900242397075
C        -2.64405848246282    3.73557164777682    1.00477120562415
H        -3.32631841848248    4.53313459404654    1.26497390641616
C        -1.34390345599384    3.75270348282378    1.48082922887530
H        -0.99221304890892    4.55793688414238    2.11639364398379
C         2.07784306605499    2.50941630842294    0.18786478664599
C         2.45714504558246    1.26643446088448   -0.30877864533633
H         2.28009000443265    0.37067004737156    0.27212396286399
C         3.07424629677498    1.16806257468733   -1.54423534879156
H         3.37264124622561    0.19738730510704   -1.91866022411370
C         3.31006411793169    2.30239981443912   -2.30161586245873
H         3.79343735777931    2.21958196905698   -3.26563998344494
C         2.92915979889514    3.54452612244123   -1.81678652148712
H         3.11419260178641    4.43312596767365   -2.40456997243784
C         2.32255698639868    3.64521068369218   -0.57992827346611
H         2.03956876713591    4.61178408933908   -0.17778441743980
C         1.39463686003607    1.19057056735198    2.58930789258667
C         0.30637071045635    0.54075432796345    3.16468828019987
H        -0.68918685187367    0.94564700320327    3.03515544589935
C         0.49415781461844   -0.61182409724050    3.90691879336112
H        -0.35791960435847   -1.11096150357781    4.34940784948246
C         1.76680703762866   -1.12449948253096    4.09193824499373
H         1.91040398221102   -2.02512223115425    4.67318267387713
C         2.86092823862530   -0.46691233025945    3.54605434761281
H         3.85789163203706   -0.85405234961293    3.70758024664887
C         2.67729425599780    0.68690901384892    2.81284880434098
H         3.52790381400446    1.22670792497194    2.41158851660707
C         2.55038079021616    5.89281442377665    4.11637058139380
O         2.91232791375196    6.79919693485400    4.75444801053594
C         0.55498587584628    4.47841820700444    4.24553131346563
O        -0.18489734142008    4.50651866238423    5.14357096480538
C         1.41421808198434    5.92017817810670    2.10976818829143
O         1.15941247933368    6.95191035394931    1.63190919203409
C         3.65821176791028    4.56695898108514    2.38942440784191
O         4.78749702979663    4.66475258685353    2.12932382420712
C         2.68999422693394    3.43387680556726    4.40471087610840
O         3.16255207266115    2.91964739599837    5.33329488920593

