89
CSD_code = NALXOQ | q = 0 | S = 0 | Stoichiometry = C34H52N2Ni | MND = 4
Ni        0.43049662143700    6.38150546752164   10.39799077980406
N         1.45862674207856    7.56210643957635    9.06037790235625
N         1.05274864501181    7.97011746173790   11.62216210406016
C         2.04212176332402    8.57577529971126    9.60095435247382
C         1.64118208756285    8.90582908874060   10.95687103378937
C         1.90881601541053   10.29055055682291   11.48108746285741
H         1.91902344505764   10.28220048851997   12.57328660675097
H         1.07776451571394   10.93390968109532   11.17032679152193
C         3.20425485879573   10.87379531093090   10.92384724156877
H         3.31392068059153   11.90508634241327   11.26446921946415
H         4.06056064758863   10.30675561295691   11.29824834935690
C         3.17679946994640   10.81676485613408    9.40192510913572
H         2.29403151039734   11.34679996835204    9.03495119186167
H         4.05818720584196   11.30789496410276    8.98479807744464
C         3.13972022071442    9.36354687709679    8.93933940175179
H         3.03608180129897    9.29745771265475    7.85299661999629
H         4.09431989346775    8.88852639398345    9.19615754641423
C         1.82112262142099    7.13934919457784    7.76992801075328
C         1.06966149624661    7.57915032554715    6.67281467532771
C         1.42642416164373    7.14319167034475    5.40523074738763
H         0.87115871652216    7.48758486469389    4.54660913429368
C         2.48188357259159    6.27131372722350    5.22719383473475
H         2.74609235186119    5.93681140227681    4.23486746597934
C         3.19696866499346    5.81658350539937    6.32070596975958
H         4.00701476602375    5.12308121945017    6.16328903771219
C         2.89232068528993    6.24673722952330    7.60165899564833
C        -0.09988939365395    8.51779316715490    6.86920658117867
H        -0.35093252372505    8.52542056026847    7.93564334544549
C        -1.33464438716086    8.04733950937351    6.09840165816348
H        -2.20294898554962    8.62935253886928    6.40010199283800
H        -1.53467428103949    6.99933766134454    6.30374664931655
H        -1.20244420365257    8.17223892167852    5.02646068614009
C         0.26867287349386    9.94210724862731    6.44531034207748
H        -0.58512136638083   10.60402725786402    6.57582522288590
H         0.56341447802162    9.96280900063627    5.39791175500637
H         1.09408855861676   10.32818834626442    7.03889844295620
C         3.62664113482892    5.73235833730078    8.82112877849793
H         3.77932580063460    6.56801659789183    9.51480538047553
C         2.75276887923400    4.69110135795028    9.52635762827470
H         3.26834675799600    4.28886248630614   10.39620681586842
H         2.51644881521213    3.87248354221003    8.84939637065861
H         1.79556497063662    5.14398414362617    9.86053439907692
C         5.00085836704675    5.14260496581510    8.50951605164739
H         5.52914363501493    4.93990176282680    9.43940670414739
H         5.59855915689726    5.83568595812207    7.92039763885422
H         4.91145713264272    4.20431580965140    7.96738998114754
C         0.68586641529018    8.17946242221964   12.96134713420023
C        -0.64736811559038    8.45444866001620   13.29013971333562
C        -0.97186880104667    8.65046649373064   14.62449734806931
H        -1.98809056888105    8.88547565083818   14.89828135747457
C        -0.01244090663731    8.54367082643196   15.61170074819969
H        -0.28075205686448    8.69845445198473   16.64638501708645
C         1.29103028525887    8.21957374132181   15.28018573427530
H         2.01907745045012    8.11162360713658   16.06775239280013
C         1.66647505872655    8.03976154144963   13.95911120812665
C        -1.69927219395286    8.51418069365354   12.20649863423293
H        -1.32690281566839    7.92359117438417   11.35208739112910
C        -1.92927520883161    9.95427074087427   11.74301618105371
H        -2.70701425865627    9.98184343713821   10.98275266566769
H        -1.02317926277636   10.37827589759060   11.31828312874174
H        -2.24067084643792   10.57793490903213   12.57954628415342
C        -3.02488796049681    7.89829993531178   12.65323633714274
H        -3.67544517057177    7.76811946762524   11.79152161243560
H        -3.54011246575270    8.53733616860761   13.36698452753411
H        -2.85767528922205    6.92638886812417   13.10950914849114
C         3.07480342140030    7.64303540594139   13.56534077942145
H         3.36699578900426    8.22899312307779   12.68537467958582
C         3.08217235155427    6.16478422755085   13.16384773288467
H         4.08069170101357    5.85863893806071   12.85646987132283
H         2.39460821172239    5.99787101119177   12.33526844192083
H         2.76821273166086    5.54478263318927   14.00095035183367
C         4.11775875772924    7.90423413363359   14.64946847950628
H         5.11356914485969    7.72526960237728   14.24762945730992
H         3.97693892342243    7.23828205314036   15.49736208101490
H         4.06982784149777    8.93452888544328   14.99680263032148
C        -0.44909315899123    5.26440848726194   11.74104620542989
H        -0.14748832303812    5.79962177827992   12.65724387617524
H        -1.54229141975477    5.21821457035207   11.74431036626891
C         0.07926159487884    3.83210948589775   11.84446537228206
H        -0.34751786901441    3.35715472540086   12.73261495520629
H         1.16253130828196    3.79668476918560   11.94889779249736
H        -0.20247699072893    3.22888103337721   10.98375895324012
C        -0.89734394859202    5.57446109781066    9.19811962972643
H        -0.38559803050535    5.76455102974131    8.23894229261568
H        -1.03008130931331    4.49029044680112    9.28008975535585
C        -2.28074049648279    6.21918654595424    9.14570394519141
H        -2.83176834600439    5.83504439414549    8.28161763524022
H        -2.22355058745829    7.30179297095794    9.04385339836824
H        -2.86305316544438    5.98634512861471   10.03445066626091

