81
CSD_code = NALXUT | q = 0 | S = 0 | Stoichiometry = C34H36N4O4PRhS | MND = 6
Rh        1.75931248572372   11.45416920884169    9.15445288098843
S         4.63132951331379   10.80568878753190    5.50408917488504
P        -0.01004916211830   11.53013621692006   10.76872720880433
O         0.65321932111714    9.09853534959470    8.02141635149274
O         3.90739406877192   11.53879506164032   11.17193652937915
O         2.90180266757687   13.81816820773051   10.23786865860527
O        -0.13976736695413   11.33798919482184    6.92340424644154
N         1.52567922718615    9.52750667167398    8.86061910051064
N         3.09319246543307   10.74115357158400   10.41896703204120
N         2.07555681081351   13.38500213035640    9.35446115006564
N         0.58609917073781   12.14989134608858    7.74472014296355
C         2.33053755959538    8.75070937551181    9.53755249084803
C         3.23533123858625    9.45369733903245   10.41655333698439
C         2.32234495077016    7.26063447741930    9.40474865390747
C         4.25185719726883    8.73840383190187   11.24218795995045
C         1.39000523318061   14.15284149974006    8.55007285469639
C         0.55259597850646   13.43741347455377    7.61699100433970
C         1.47711685398988   15.64523138463644    8.58195342197639
C        -0.26193277637507   14.14209137532956    6.58552607702665
C        -0.87875236065144    9.93824201246224   10.98704088666099
C        -0.10813341795543    8.91998868862828   11.54885274470042
C        -0.63736657986600    7.65828637138246   11.72834879232892
C        -1.94323949425633    7.39537840790107   11.34456409470227
C        -2.71731400174307    8.40556761919619   10.80260596005875
C        -2.19191777996989    9.67478076968913   10.62441344129518
C         0.30631599874287   11.94735632643998   12.52235885749412
C         1.33253984291113   12.83085494349092   12.84315585577296
C         1.57082921360107   13.17261851511512   14.16298980635490
C         0.78508458778943   12.64234123834150   15.17181677365388
C        -0.25080166640370   11.77799959876009   14.85564021776547
C        -0.49327699396149   11.43151706812109   13.53942707931090
C        -1.31111963096667   12.73807301615712   10.34582980875254
C        -2.05267228853706   12.55677251157072    9.17858696173105
C        -2.98285031672795   13.50221668274056    8.78868547139961
C        -3.16931332972094   14.64851103226862    9.54435002036334
C        -2.42049617813085   14.84467343928430   10.69242740150755
C        -1.49440319915715   13.89764348103876   11.09229050204122
C         3.27234155406451   11.43625906465058    7.78865688712134
C         3.25409663142884   10.77607480349540    6.64843728857520
C         4.87991483192754    9.07217979244862    5.25604804788392
C         5.59122746936378    8.66651685749809    4.13192023945405
C         5.82833010346371    7.32336794994068    3.91511866762242
C         5.35437921122528    6.37663288155467    4.80974593799753
C         4.65140986458947    6.78437692439434    5.93047595820542
C         4.41936060642280    8.12748864202397    6.16384831804868
H         3.65812295366966   12.49065826219716   10.90144185345856
H         0.08057143258761   10.38203554402478    7.23986397190585
H         2.01139691529194    6.78674282945087   10.33497576911654
H         1.61579319661197    6.99243618288104    8.62180988199075
H         3.31140483582128    6.88829360749505    9.14264652414852
H         4.99580436659832    8.27601633472607   10.59469711696613
H         3.78205906490651    7.95348984767618   11.83187079801390
H         4.74835986102106    9.44439619900127   11.90280010205325
H         0.50917670557699   16.08176042355673    8.82612690760952
H         2.19938494341535   15.92996728956595    9.34400344213605
H         1.80136172145772   16.03781923866342    7.61989565493012
H        -0.93825037326513   14.85091996106226    7.05998436788457
H         0.38986315069229   14.69152812966840    5.90859140774093
H        -0.83624890762573   13.41670178508044    6.01587726016529
H         0.90645591738343    9.13759190250175   11.85871937777813
H        -0.03556751673105    6.87617189329214   12.16843115006467
H        -2.35608993458088    6.40610336416843   11.47391931939083
H        -3.73935756452937    8.20778063215220   10.51453663432359
H        -2.81509058052192   10.45587668029031   10.21613375189294
H         1.94110219165064   13.26843306491287   12.06564098232971
H         2.37373615326867   13.85444804745070   14.39999765046289
H         0.97425901280867   12.90469285950386   16.20226788022063
H        -0.87547456981998   11.37188701157757   15.63810723704504
H        -1.30621156692141   10.76003003983298   13.30277701137252
H        -1.89713577113606   11.67895968399213    8.56725479595104
H        -3.55638729366305   13.34803612748055    7.88647405563664
H        -3.89098355121414   15.39004813669182    9.23480529418045
H        -2.55488096112245   15.74116599474618   11.27986839983813
H        -0.91145701112338   14.06286330091861   11.98657505691333
H         4.17401251850675   12.00265826299323    8.02808576496904
H         2.43155950857392   10.18242915695555    6.27431842946031
H         5.95145115517496    9.41077834580594    3.43783128496569
H         6.38093648309662    7.01277205727577    3.04049318906312
H         5.53501526820958    5.32644940251175    4.63497503127243
H         4.28255148995138    6.05142216061198    6.63384375113165
H         3.88515864135451    8.44265909582345    7.04757459680111

