81
CSD_code = NALYAA | q = 0 | S = 0 | Stoichiometry = C34H36N4O4PRhS | MND = 6
Rh        1.47804854507024    2.97724616835109    2.39132693650452
S         2.90249696446776    6.34959657403095    1.62084189748100
P        -0.08823709796705    2.03625811297877    3.93513559998896
O        -0.20630844650450    5.26099557567202    2.40833021239623
O         1.25856013767958    0.70276517775200    0.54198701056684
O         3.19590568376697    0.71388967394758    2.34795403332128
H         2.06124537642442    0.56462435416215    1.16369973769614
O         1.72094494391677    5.25762804841154    4.24328865896492
H         1.00077197468319    5.46862839541780    3.55212001501782
N         0.04758322878271    4.17673563121977    1.77791034424890
N         0.74909117520091    1.91982664297562    0.90197584322788
N         2.97184761162633    1.82705868480444    2.95563505274298
N         2.25421444507979    4.07389743877801    3.83334140328818
C        -0.64013722648917    3.75039344092003    0.74936384800150
C        -0.21648623584682    2.47092021780101    0.23805162590225
C        -1.79180391451155    4.51292673324211    0.17609946819202
H        -2.72503221383285    3.96763802178816    0.31865786935630
H        -1.65127881999666    4.69110856798437   -0.88830192072623
H        -1.85773957378382    5.46794736144567    0.69314720816122
C        -0.85504328225003    1.84473331521173   -0.95605217481956
H        -0.65102459422389    2.44528141115928   -1.84139661699780
H        -1.93350042746513    1.79188598954517   -0.82269122515953
H        -0.45399591612157    0.84559157268108   -1.10505126846846
C         3.68204408929025    2.27034931396045    3.95825175932457
C         3.24220039211440    3.54282973962768    4.47983375840938
C         4.85246746447763    1.52251149775343    4.51345604308861
H         4.70664523422802    1.30145336152895    5.56970492481723
H         5.76767062621440    2.10270032046870    4.40403819614568
H         4.95697849063937    0.59026917642884    3.96178529409165
C         3.84469137335048    4.17404283237231    5.68882839321798
H         4.92021905169641    4.02639393407229    5.71113485212865
H         3.40933742351823    3.73136258874931    6.58546835300409
H         3.62341469280274    5.23868311029073    5.68814634198783
C        -0.14169163718218    2.94572373769409    5.51310428219398
C         0.37780029656863    2.38098218402120    6.67521564232316
H         0.74562648127188    1.36414590447598    6.66416877861328
C         0.42890461501220    3.11809115751927    7.84409209175348
H         0.82978279575305    2.66978738762399    8.74195184825417
C        -0.02496216232574    4.42675451600124    7.86384298926228
H         0.01588268544944    4.99869769325196    8.77897208919353
C        -0.51093684651091    5.00489352553927    6.70348773487119
H        -0.83975029685017    6.03307765517216    6.70617735663054
C        -0.55728495533747    4.27648675540826    5.52882756784078
H        -0.89037002244280    4.75386396195384    4.61827126696626
C        -1.80311022188781    2.02397036228277    3.29295587892891
C        -2.04691076468072    1.08872194328180    2.28675092828092
H        -1.25811884869174    0.41156836991572    1.98556718641511
C        -3.28966050744232    1.00673143395077    1.69065477818025
H        -3.46871682991315    0.27368015946578    0.91738700502153
C        -4.30555290810418    1.86216891213059    2.08792465614615
H        -5.27641225617318    1.80601767030952    1.61797190116295
C        -4.07400209683553    2.78089331967436    3.09636621909083
H        -4.86653477107235    3.44008270721699    3.41900922076996
C        -2.83037003327955    2.86344228845801    3.70056668247897
H        -2.67527548499585    3.57496241961201    4.49624906764868
C        -0.08340632194997    0.30039341213642    4.51754365580339
C         0.88625319865562   -0.61450005263560    4.13191065868815
H         1.69762927288756   -0.32181532336561    3.48347914916310
C         0.81682694706194   -1.92556341435840    4.57714491462357
H         1.57477050472546   -2.63139114742400    4.27159521645383
C        -0.21622067253667   -2.32863100112411    5.40338946821344
H        -0.26857477328138   -3.35096288148311    5.74777069010742
C        -1.18963529744678   -1.41785134315764    5.78796747272160
H        -1.99960711623610   -1.72964699575082    6.43121368268926
C        -1.12694138601382   -0.11189485548383    5.34618183906168
H        -1.88585779274918    0.59999098835920    5.64288369524627
C         2.77890402993110    3.66093021792876    0.97029516281950
C         3.27570423391364    4.85698914168760    0.71260978386734
C         4.25737866332965    6.41576391692863    2.75127666318626
C         5.25595447306824    5.45155085793267    2.79658035200397
H         5.22471482397835    4.60466464740766    2.12710869273252
C         6.29005712379788    5.57719443205415    3.70650684574813
H         7.06922281042133    4.82792339505060    3.72809546756702
C         6.33444104420677    6.64948351437907    4.58063686680789
H         7.14492934782360    6.74128694626715    5.28843764667199
C         5.33006144347041    7.60488395229018    4.54099518429024
H         5.35400911222566    8.44309708263659    5.22211036088086
C         4.29778183319141    7.49337661400576    3.63175127549725
H         3.51135936122232    8.23150399330607    3.59381705045915
H         3.13304202796626    2.87539623300507    0.29364754637227
H         3.95687570121470    5.04521061718831   -0.11128598970210

