39
CSD_code = NALZIM | q = 0 | S = 0 | Stoichiometry = C16H8F12N2Ni | MND = 4
Ni        0.51051459541830    6.54814591558806    3.20642455360526
F        -0.00325905236925    6.42945720013712    0.45205441783396
F         1.76665961666862    5.50054257315810    1.30789530195481
F         2.71607663078284    7.24768011945240   -0.11561692853887
F         1.23602348918022    8.74948657764775    0.25843209416105
F         4.09001536035111    8.39712372991718    1.57388873813796
F         2.86516723715013    7.29842789709661    2.98064596570288
F         3.46241913080335   10.11136608323956    3.31722606266636
F         2.01615707576579   10.51913640694861    1.78312357075235
F         0.78261405378933   10.56256603926291    4.13096284493227
F         1.88214706697710    8.84481739906873    4.83577059858971
F        -0.87517948922232    8.51032040652510    4.20138594662885
F        -0.41851708090602    9.00423059808420    2.16051432316768
N         0.14646150680801    4.56762376700538    3.11680475074170
N         0.53385406498092    6.12638897671817    5.16929859867515
C         0.96266346417295    6.63995699727102    1.38472925736908
C         1.90999767546657    7.75242672104699    0.84881001410204
C         2.82930749005935    8.27146684595353    2.00063573879589
C         2.38348022473287    9.59850911648841    2.68277539910341
C         1.26612768293079    9.36673774944049    3.73841269623285
C         0.13930485958515    8.40913928978950    3.26408084692406
C        -0.31992994068284    3.82976835483212    2.11896959471106
H        -0.78256025928057    4.35515035329562    1.29468075985528
C        -0.23025418597674    2.44599763648114    2.11118833766042
H        -0.62881337501023    1.88470645501686    1.28209871168135
C         0.38898523846366    1.81434258476909    3.17632515203715
H         0.50008558512509    0.74082528417599    3.19394419315462
C         0.85117988207744    2.58128842320933    4.23226586098001
H         1.31235189816049    2.10681377367338    5.08254014576908
C         0.70262415317893    3.96437762906441    4.18012153991699
C         1.00867675064558    4.86757771993255    5.30214650705304
C         1.63220166661975    4.44356746588170    6.47122758339296
H         2.05386520140861    3.45421618671909    6.53688869715584
C         1.71644353166249    5.30760626531365    7.54952491499383
H         2.21127524893821    5.00187289243279    8.45852739893417
C         1.12181825383500    6.55171360847511    7.44338062871898
H         1.10776421476909    7.24038133239218    8.27180192073879
C         0.55079128160080    6.91880852389976    6.23332428447525
H         0.07695925133864    7.88373510059626    6.14128897723223

