61
CSD_code = NAMBUA | q = 1 | S = 0 | Stoichiometry = C18H37NiP4S(1+) | MND = 5
Ni        8.81362785495369    9.47106008334808    3.48457104342807
P         7.36031130711818    8.61051089530276    2.00800457088916
P        10.03141056735988    7.31223395494568    3.46550920006488
P        10.15253049275434   10.89021737289916    4.46476735321378
P         7.62668793513318    9.38219184774426    5.32150598657117
S        10.09118371316907   10.32114241479158    1.83561568569781
C         7.52238074277347    8.94843451636961    0.22071076396281
H         6.89033508492709    8.25632560055043   -0.33428499640905
H         8.55896722934913    8.83836686515825   -0.09147305154119
H         7.21018344349768    9.97179090927758    0.01740143098123
C         5.54097520939177    8.69154007135829    2.19533876670170
H         5.06956691952513    8.03177165843291    1.46852057383825
H         5.20858981741034    9.71342678912003    2.01746407792218
H         5.24772735121144    8.39170713685361    3.19936251696351
C         7.65800818472540    6.79185227630609    2.07826977842872
H         7.22521951030171    6.41777804995364    3.01129635014687
H         7.14344589360847    6.31265965164923    1.24025516356395
C         9.15528405062142    6.50637257136357    2.04102795833815
H         9.58834994592079    6.92256551095314    1.12724163537401
H         9.35014607096656    5.43061865869538    2.06032495441795
C        11.75204045359379    7.13943942337930    2.85715645452857
H        11.89917427778455    6.14397187816074    2.44081272931406
H        12.45151754527240    7.29252547045977    3.67645849119728
H        11.93628451966575    7.88833566426047    2.08900488887241
C         9.98724748796018    5.93793500685348    4.68678855585902
H        10.51430457177702    5.07069775812397    4.29352377504216
H         8.95589487169272    5.66448329655281    4.90067778146864
H        10.46403180281875    6.25387945075371    5.61323007410990
C        11.83041370397993   10.21847441589227    4.68633895139038
H        12.41458194643338   10.91512447994422    5.28649470915822
H        12.29661208392118   10.08811571931514    3.71148051118905
H        11.77130757692554    9.25378528598527    5.18890964373611
C        10.47929383698854   12.63617083356665    4.05284715885746
H        11.01451955495840   13.07906729315925    4.89238598572960
H         9.54963052610467   13.17866246078761    3.88943106894381
H        11.08859185225337   12.69953854215684    3.15345396487188
C         9.57253211698553   11.08144125778973    6.23107841731694
H        10.43302655003476   11.27104271143560    6.87681032834392
H         8.92100080483768   11.95923562492525    6.26529079051075
C         8.80617645327511    9.84313156073949    6.66187540046076
H         8.26481641893047   10.00204562205138    7.59831514167693
H         9.48966697093822    8.99860507329651    6.79439442301190
C         6.83562076001299    7.89297142871477    6.02301283076468
H         6.39256446928439    8.13724541777115    6.98765533611375
H         7.58367199236855    7.11435923168339    6.15521798255629
H         6.05841962607541    7.52636297328574    5.35500884349306
C         6.30369305802218   10.63153940568088    5.51683335399497
H         5.95683621699585   10.64007394529190    6.54971692609002
H         5.47187049120808   10.38538051356722    4.85873172950099
H         6.67593354951325   11.61916585309075    5.24788962290660
C         9.56807001876655   12.49467245766284    0.29223575651753
H        10.50096460718340   12.25614005652835   -0.19467767102125
C         8.81240105205791   13.57637124927099   -0.11694653662594
H         9.16213095872943   14.19023779352855   -0.93253632814446
C         7.61472492061080   13.87740522118058    0.51354688400497
H         7.03036359470368   14.72472030281883    0.19114467895611
C         7.17115497032338   13.08582075878397    1.55953982199936
H         6.23934103459625   13.31521616441734    2.05593037783237
C         7.91711924861631   11.99700948758510    1.97138660266977
H         7.56821768417034   11.37158658208491    2.79826017289164
C         9.11960449493907   11.69644549228771    1.34036060726016

