66
CSD_code = NAMBOS | q = 0 | S = 0 | Stoichiometry = C23H37N2NiPS2 | MND = 5
Ni       -0.72416699260302    1.65798160185412    4.82646424936990
S         0.58498761704230    0.05596836006258    4.07833136147062
S        -3.18869849848974    1.03212848323339    4.34019042062368
P        -0.46569533424623    3.55649068493224    5.96877376578785
N         0.65267755499007    0.61404287427202    5.61039807751813
N        -2.18643728324985    2.19498353875667    3.71622665683593
C        -0.87439070965503    5.14710329034289    5.14560088916026
H        -1.89185796076827    5.11031239185112    4.76986040231071
H        -0.19808048784321    5.29675093138494    4.30724710974067
H        -0.77393011549174    5.97395067704871    5.84681812331155
C        -1.45277535410106    3.75085937178897    7.51018225714701
H        -1.20824660627553    2.95850905485227    8.21379645452506
H        -2.51089560035559    3.67986397552267    7.26872242814209
H        -1.24855038793352    4.71633851770957    7.97010610264763
C         1.20581394407608    4.00344479841183    6.59434956790002
H         1.60891742584946    3.19357713599239    7.19524779322962
H         1.15348156689950    4.91088971993060    7.19380492619825
H         1.86575476178918    4.16806251031749    5.74556197217753
C         1.84283587185326    1.05466805642245    3.30272275776295
C         2.70784753411430    1.82211343575824    4.06904571226002
H         2.59713955804674    1.80934884521183    5.14277563025898
C         3.67726086838870    2.58542749081641    3.44791447106476
H         4.34814392894943    3.18759634511750    4.04418183049120
C         3.79675725949921    2.57486557093600    2.06704353241178
H         4.55435946398137    3.17422883342864    1.58453267765291
C         2.94634822054978    1.78743937744462    1.30675090929797
H         3.04324600239607    1.76875196480561    0.23118633288371
C         1.97229925780417    1.02197592208772    1.91914529333443
H         1.30765943931540    0.40670009664980    1.33035697855471
C        -4.18155789211470    1.94398522973528    5.49694236801208
C        -4.29417107035477    3.32368953550267    5.40818064452525
H        -3.75083110305031    3.83336237343917    4.62801773735471
C        -5.08148287507457    4.01107854806363    6.31199796468157
H        -5.16723276758933    5.08630569557573    6.24013763571346
C        -5.76434315035626    3.32532027259591    7.30447659265213
H        -6.38026875332452    3.86366714760588    8.00951380601778
C        -5.65681769792018    1.94516630495471    7.38678442764688
H        -6.19012519859024    1.40779445172682    8.15756586687089
C        -4.86920297554678    1.25208376648434    6.48780187114791
H        -4.77945560726648    0.17725692490745    6.54428750096985
C         0.37349247380716   -0.29186437042447    6.70862279568467
C        -1.14368275609548   -0.50254093158995    6.84963236652805
H        -1.38726092308441   -1.02289882931264    7.77349021671798
H        -1.52242084488605   -1.08500911453419    6.00889621050799
H        -1.64017709240402    0.47888732877950    6.85649945604725
C         0.91811244672604    0.37446839115453    7.97986674628458
H         0.73146053541959   -0.25438301303192    8.84678949515175
H         0.43086465847135    1.33521219174454    8.12919778419421
H         1.99007964357065    0.53609929939869    7.88830628936336
C         1.07973774724886   -1.63717368885887    6.50494332413802
H         0.96083132910781   -2.25901430470970    7.38897807789845
H         2.14205458410377   -1.47866594774593    6.32730061164453
H         0.66124963636819   -2.16434162309509    5.64950210830569
C        -2.13712553624632    2.34603040421037    2.27106447651030
C        -3.44380931925582    2.99772216324540    1.79323882013225
H        -3.42504569873392    3.12702869834963    0.71391402868785
H        -3.57713648234440    3.97192781618131    2.25818760160760
H        -4.29130670960717    2.36849289712747    2.05822316834513
C        -0.94677198058061    3.26817311372483    1.96992557915260
H        -0.68271843152169    3.23052640234430    0.91645452191661
H        -0.08381032609732    2.94940681894302    2.56628394461599
H        -1.18638778388431    4.29352419612456    2.23815713186296
C        -1.95472994549090    1.00815673232242    1.53755579754165
H        -1.85499489328754    1.16572469589261    0.46599199295860
H        -2.81301128614363    0.36360910263958    1.71985273403236
H        -1.06300889868638    0.50201746363723    1.90457962047735

