53
CSD_code = NAMCAI | q = 0 | S = 0 | Stoichiometry = C23H26ClNORu | MND = 9
Ru        4.80310008970960    2.59190971872919    7.31433368030323
Cl        4.04621985497502    0.49779513163856    6.59420567940895
O         5.45948450159902    2.83342465899744    5.38141611316343
N         2.98740962270899    3.22342821276112    6.66956262525859
C         2.58725169209055    3.18848049193907    5.43668270591621
H         1.54429941626260    3.45311981770441    5.26901406804824
C         1.97846200045376    3.47943934605370    7.67785301387916
H         1.16433402283998    4.08272887561399    7.25489786211264
H         2.42666520356238    4.04625377928438    8.49699140115632
C         1.40656666833073    2.15201896976104    8.19411048082376
H         2.22979943238700    1.52808712062992    8.55343305179152
H         0.95916376536440    1.62895272034234    7.34680395265307
C         0.36012052974443    2.33568432450322    9.29163530279492
H        -0.38324637600801    3.06804912363515    8.96691263561979
H        -0.15636705717779    1.38466351288505    9.43539140456099
C         0.94948184805833    2.77250207501175   10.63104925893262
H         1.70294589906688    2.04447745340204   10.94174608095814
H         1.43724378968002    3.74434542683259   10.52527159898930
C        -0.11802401287204    2.87643430788617   11.71845199355863
H        -0.87984280458429    3.59509192483512   11.40804323323363
H        -0.60657495574576    1.90695015325808   11.83641941769242
C         0.47362318241999    3.31061593072847   13.05421277069864
H         0.94415607524308    4.28796407419780   12.96559708707613
H         1.22462728683059    2.59800392173478   13.38920427670075
H        -0.30137134627927    3.37259487136263   13.81425237723884
C         5.12937273913541    4.13791766057761    8.99479497743893
H         4.62416781978545    5.06219964179789    9.25630462673330
C         6.24233185688157    4.17386088307723    8.14466804772950
H         6.58713653476334    5.11381271066115    7.73230869623304
C         6.97054427259467    2.98092370450802    7.89767008722263
H         7.86057185310683    3.02036585361111    7.28045716634287
C         6.58373701231404    1.77646429156663    8.48775601675522
H         7.16944084083014    0.87718276794769    8.33880791990268
C         5.43671308061235    1.74140403347640    9.32582310905707
H         5.16578668119749    0.81453913110934    9.82054678162912
C         4.73751558117286    2.92271624637586    9.61603307861034
H         3.93989554073478    2.91991136184932   10.34917951995842
C         3.34035828808353    2.93326154931912    4.26326948955923
C         4.75970683989702    2.85607316442898    4.31510975120623
C         5.48724870126810    2.86488339692277    3.07999276759194
H         6.56420243313343    2.85512102783836    3.15590278767647
C         4.85638134360316    2.86373160293581    1.88437793433416
H         5.42761288211054    2.86189183556717    0.96638052820181
C         3.44018890372498    2.83313164256037    1.79739669937932
C         2.80570913448729    2.76777953653358    0.54663480128574
H         3.41931445395935    2.76286011959702   -0.34327052748856
C         1.44076997204862    2.69929465838842    0.45030733845467
H         0.95700515469656    2.64702788361403   -0.51358974242327
C         0.67722426133302    2.67752704577771    1.61845304874277
H        -0.39802861222620    2.59468679704296    1.55036472178970
C         1.27628191608623    2.74765695213949    2.85157844714852
H         0.64610029234604    2.69055810174941    3.72539910871058
C         2.67308189366144    2.85070045529194    2.98945074564343

