51
CSD_code = NAMFUE | q = 1 | S = 0 | Stoichiometry = C25H19IN5Ru(1+) | MND = 6
I         3.17165008261489    4.30946117714766    1.64848963066266
Ru        1.66310652541073    4.80372187911030    3.83395002711623
N         0.36948226918140    5.85033792233110    2.67031013068528
N         0.57668211847467    3.37336733842066    3.25237916485804
N         2.60565551253012    3.28778404452621    4.79791863510393
N         2.76292492079231    6.36738619126587    4.55659578162236
N         0.61003141016260    5.25661347046483    5.45866274476933
C         0.35119618013693    7.15357325635077    2.40401497004063
H         1.10695747667879    7.75651802786817    2.89603640194822
C        -0.55565023359179    7.73262062922020    1.53623554118964
H        -0.52004499669780    8.79293947584343    1.34841333904540
C        -1.49305319891282    6.92159184992289    0.91004102912163
H        -2.21023197759607    7.33811450373983    0.22111620064554
C        -1.48229920666739    5.56567320399004    1.17796467571512
H        -2.19017711108041    4.90916347722199    0.69993092983861
C        -0.53777982768832    5.04577487231331    2.06050262446751
C        -0.41861586264817    3.62363504397999    2.38435831723277
C        -1.17865651751996    2.57708466428858    1.87044517889452
H        -1.97231615154534    2.76386633971501    1.16701731329905
C        -0.88184702796848    1.27964395542055    2.26300846134828
H        -1.45321698261975    0.45471764482849    1.86962734454725
C         0.16440483509033    1.04028440652492    3.14246417566179
H         0.41488420890378    0.03255848590395    3.42763533595488
C         0.89339586728771    2.12207271740469    3.62774005368152
C         2.05423312967306    2.07943062902948    4.51755480040631
C         2.59515428705760    0.90389785879391    5.03410620056897
H         2.14577165350972   -0.04540670864372    4.79431461437065
C         3.71710996156320    0.96439182516562    5.83895425002812
H         4.15466163940734    0.06321524952499    6.23748894187113
C         4.27458038303741    2.20640948566044    6.11358779553381
H         5.15543927715523    2.29988283486851    6.72695293630426
C         3.68623570284442    3.33412872254072    5.57275284030540
H         4.10679030736409    4.31746485842275    5.75432144657430
C         3.88290863586789    6.88294273143672    4.04153110533123
H         4.26292164052805    6.41959254203335    3.14140088951849
C         4.55279815343031    7.95546039273204    4.59939228991638
H         5.45135286658617    8.32311749018244    4.13223434688838
C         4.04920582052867    8.53802166381291    5.75450902486617
H         4.54379162073053    9.37722576604335    6.21631667911657
C         2.89376394899385    8.01320696134817    6.30171520208723
H         2.47987344473633    8.44170926426280    7.19900754102344
C         2.26806648142701    6.92832590068581    5.68789302477948
C         1.05093844081042    6.30246183717599    6.19426657973247
C         0.37190988999902    6.71744953148637    7.34006345087832
H         0.73645544818065    7.55343683519552    7.91263319839552
C        -0.77122029298138    6.05316202991390    7.73873742299173
H        -1.30773238897593    6.36177126789338    8.62111817760748
C        -1.21210381605803    4.97796138046393    6.97630994665163
H        -2.09745866159459    4.42654035514287    7.24659759923073
C        -0.49440350449278    4.61974385009464    5.85385774064048
H        -0.82342638205907    3.78415086692584    5.24772394693085

