70
CSD_code = NAMGEN | q = 0 | S = 0 | Stoichiometry = C30H33BN2O3Ti | MND = 5
Ti        1.84160277861229   -3.00720274734007    6.33316533499386
O         3.67339057687542   -3.03829805436127    6.50565297958408
O         1.66420011229560   -1.77895933234812    7.71309713317735
O         1.19019752742511   -2.32161135973187    5.02646771338491
N         2.05666396953650   -4.89096657667383    5.57310462539163
N         0.18211316741517   -3.87525191243024    7.11852293017720
B         1.24289697579479   -1.41907273428361    3.86474450348922
C         5.82402352706929   -2.72695815268617    5.52859756364327
C         4.50584337269272   -3.45603553396434    5.62200282849775
C         4.25613174427392   -4.52532117941326    4.78776331689830
C         3.03505439899871   -5.23743986830277    4.78224686743322
C         2.92556628303179   -6.42998781866547    3.86886357462705
C         0.80625493176518   -5.61252954202761    5.56626269940191
C         0.07907345938511   -5.29531041752811    6.88243977909568
C        -2.24092126921537   -3.70449810676750    7.57367505617788
C        -0.84732896851834   -3.13686329031024    7.43880906927054
C        -0.68084882681827   -1.76355170637353    7.72181020480177
C         0.55624677551169   -1.15160285020794    7.83984591161957
C         0.62451920450415    0.31068823908353    8.20279481563536
C        -0.20701886987734   -1.38489602662134    3.14462805779183
C        -1.33946412385683   -1.76574466653495    3.86015466814797
C        -2.59819421817578   -1.76413196139457    3.28553525817381
C        -2.75403186194903   -1.37396058264998    1.96580172787054
C        -1.64256863041533   -0.98993233544270    1.23419612745835
C        -0.38798512482291   -0.99851307564452    1.81894632192272
C         1.68195669434376    0.03223753551294    4.46180434870641
C         1.07913475470654    1.23440836555444    4.10125318265414
C         1.47766068035815    2.43943107399128    4.65713811299977
C         2.49807500265347    2.47122996629375    5.59265846266051
C         3.11366739654335    1.28740024580103    5.96738725011647
C         2.70471119180654    0.08711636669975    5.40951021023954
C         2.38603693361462   -2.09184612083717    2.91245533203811
C         3.65438516561262   -1.55548298174594    2.70817461295745
C         4.61154684327054   -2.22000739281993    1.95853894020918
C         4.31779371465637   -3.44306015707045    1.38162680025140
C         3.06048692659323   -3.99380675054385    1.56295027523897
C         2.11770644638536   -3.32896530768976    2.32746896725231
H         6.02993190775586   -2.21483777965003    6.46677391962808
H         5.74473854547788   -1.98174718401876    4.73686171464814
H         6.63795740966154   -3.40366282202893    5.28501346924158
H         5.02245481677121   -4.82404796545588    4.09112500258520
H         2.86218152884637   -7.34975622441368    4.45198706626165
H         3.79266455445031   -6.49141039198294    3.21973189939313
H         2.03067482995544   -6.35192626827832    3.25457856497186
H         0.19067333880530   -5.26122626927695    4.72169189262641
H         0.94476905821939   -6.69963695727690    5.48152729427363
H        -0.95427206797417   -5.65916963980399    6.82571891887077
H         0.58967527211504   -5.82188808108022    7.70476631536239
H        -2.26822855515041   -4.48496549468907    8.33350654770494
H        -2.57032993982620   -4.12855769351246    6.62550639799198
H        -2.93803031757429   -2.92281102948038    7.85834158718109
H        -1.56366608757950   -1.17070807167671    7.90366035800009
H         1.57358972331955    0.52270380118498    8.69044691305384
H        -0.20155224268918    0.60495895332223    8.84388807148633
H         0.58042621025328    0.89312791834621    7.28226122927388
H        -1.21004566753894   -2.06847473894556    4.89672297926462
H        -3.46362351253386   -2.06413442126221    3.86388922394249
H        -3.73529294164799   -1.36957817768452    1.51059001664429
H        -1.75815095214266   -0.68480134705992    0.20245237489627
H         0.47586648427170   -0.70343685662851    1.23877055683094
H         0.28240456298843    1.22393347010946    3.37071477816067
H         0.99139366264257    3.35941439450645    4.36053347780704
H         2.81284494884685    3.41103871774930    6.02573224487349
H         3.91656440364471    1.30422978379369    6.69374096716832
H         3.19737823144971   -0.84072392939584    5.70499195055499
H         3.89046135340432   -0.58584994344930    3.12749029091912
H         5.58901029195167   -1.77831217211920    1.81070768340259
H         5.05912624384887   -3.95822465474263    0.78537785233576
H         2.81620320359058   -4.93891133456365    1.09438241987560
H         1.12992304026031   -3.75761084110151    2.45652045682091

