101
CSD_code = NAMGUF | q = 0 | S = 0 | Stoichiometry = C50H41BFeN6O2 | MND = 5
Fe      -12.21389599993062   14.60158977283925    3.35441264616360
O       -13.64724784534525   13.74299580254579    4.37408249239632
O       -13.20594111654326   16.29969670518305    3.35590400895496
N       -11.12881385257843   12.95019795854586    3.39871551571673
N        -9.82608788739446   13.06992361810060    3.66816149446155
N       -10.92012840898318   15.28341853660576    2.08448249112482
N        -9.61436625672935   15.07744801506309    2.25069762489000
N       -11.07977908002725   15.27627933357589    4.88523405629795
N        -9.75739112853656   15.29971182640714    4.68520530884123
C       -15.83719119059512   13.23006009059494    5.11637053430222
H       -15.33461798293434   12.35046258092412    5.50942229347473
H       -16.43502723338476   13.69937779244711    5.89221707538495
H       -16.49950490560310   12.91691679498121    4.31069941806339
C       -14.80923486273327   14.19929631610188    4.56932891468720
C       -15.22123994156428   15.50722755479699    4.30580685047202
H       -16.22938806614051   15.78799209897348    4.56636262458695
C       -14.38610230858800   16.48534219730337    3.75990541257890
C       -14.95153949725988   17.88203055804918    3.60673489161104
H       -14.21591677037092   18.51912427229067    3.12341832096176
H       -15.19995047514377   18.28835606245737    4.58446681647715
H       -15.85649279142581   17.85394655557594    3.00396831116503
C       -11.45277165979982   11.65865484691598    3.49850590942980
C       -10.30841113671243   10.92509674852714    3.83858162599045
H       -10.23370865849229    9.86727655641360    3.98870437556058
C        -9.29117456720675   11.86059148454991    3.94146519057461
C       -11.09296958190573   15.97001188572813    0.94915873730937
C        -9.83560491841757   16.22710721411412    0.38265185983515
H        -9.62800156507897   16.72864133530719   -0.54064813829364
C        -8.91766503164757   15.63135699130730    1.23254938067244
C       -11.33720827063636   16.00263852818818    5.97139267651360
C       -10.13663871280126   16.50503375209324    6.48819328172937
H       -10.01473075246662   17.12497954727302    7.35312173942161
C        -9.14838105933396   16.03387818842400    5.63867180712703
C       -12.79938865246803   11.16958884741307    3.24105507173888
C       -13.55657399585020   11.72691667801803    2.21342308341678
H       -13.10763412240818   12.49393781109151    1.59569198206716
C       -14.84407318665980   11.29035223330325    1.97283820717029
H       -15.42468829081734   11.73269890529371    1.17553269324470
C       -15.39064990201275   10.28090108006822    2.74972138566818
H       -16.39947961009429    9.94095538978400    2.56566897608667
C       -14.63770384272868    9.70624977738038    3.76003946206798
H       -15.06095261833450    8.91625167584815    4.36390667414925
C       -13.34904148231045   10.14405637679618    4.00482470089210
H       -12.76903705536784    9.70653806813918    4.80402587335323
C        -7.88701271060661   11.65496093258485    4.28410241477625
C        -7.15575248618275   10.65488096387858    3.64835267585394
H        -7.63825736719208   10.03613743201958    2.90559695782355
C        -5.81943985585847   10.46683688187744    3.94954006941571
H        -5.25906968820940    9.69265970031015    3.44555579871787
C        -5.19773601173210   11.27296086374734    4.88852047822955
H        -4.15132088082405   11.13116207374936    5.11530130272473
C        -5.92381067931976   12.25613848616968    5.54069418464212
H        -5.44730309304984   12.88307375588543    6.27998895214119
C        -7.26132980654611   12.44282705316327    5.24812135721192
H        -7.82884283427885   13.19681863515684    5.77064900248484
C       -12.40604822805142   16.32089920980435    0.43269569152384
C       -12.59085295488747   17.47988404001426   -0.31900119868949
H       -11.74957476873704   18.12977611786869   -0.50856680074776
C       -13.84412039168652   17.81266038830277   -0.79784989895290
H       -13.97656144354904   18.71809065044168   -1.37245640978988
C       -14.93119054645157   16.99534022180308   -0.53706700235925
H       -15.91061331616734   17.26050411814197   -0.90720765058620
C       -14.75692172977433   15.83452622877192    0.20042286016195
H       -15.60139962928170   15.19195434336550    0.40453351538551
C       -13.50508225040429   15.49710325630917    0.67412310873244
H       -13.36573781431052   14.58124800035540    1.24514822425827
C        -7.46577104953942   15.56848998264686    1.10861966353024
C        -6.75232079731554   16.71651450961862    0.76992475218359
H        -7.28560791621878   17.64096132074923    0.60192319562173
C        -5.37408868506351   16.68118231397815    0.67066946173145
H        -4.83091515025378   17.57950111197640    0.41459372167550
C        -4.69006432045598   15.50005914451296    0.90638672334156
H        -3.61242396304393   15.47526601418978    0.83827416191301
C        -5.39351812444761   14.34936983425070    1.22255340928341
H        -4.86616177621597   13.42304454394060    1.39709165035585
C        -6.77186485669773   14.37787541181185    1.31608687636428
H        -7.31670064925650   13.47472903220792    1.54310359712225
C       -12.66405278452791   16.16307869298504    6.56834315479577
C       -13.34890967766256   15.05201633816358    7.04788092875126
H       -12.91369151803610   14.07227879781762    6.92467572403165
C       -14.56876463553860   15.20847135522521    7.68008310437548
H       -15.08916671091134   14.34317837570028    8.06429436787685
C       -15.12029925055228   16.46953418626185    7.82932496045373
H       -16.07528576864978   16.58935547960824    8.32050804878952
C       -14.44131880029358   17.57896285819570    7.35419862326643
H       -14.86789496170350   18.56500034943032    7.47424104675366
C       -13.21349807694112   17.42920451700214    6.73602274774255
H       -12.67791119617368   18.29210484382199    6.36794221625190
C        -7.70422898549976   16.23710589981600    5.70584047519787
C        -6.97844135488288   16.62046706146411    4.58065174220192
H        -7.49390992030330   16.80420952751559    3.65134033125439
C        -5.60692238794678   16.77244282028290    4.65336487889176
H        -5.05494326403370   17.05705561754581    3.76962233200569
C        -4.94405468750992   16.55793559364215    5.85053799835938
H        -3.87135210093976   16.67213080040683    5.90417601800607
C        -5.66180037821065   16.20362563214576    6.98086877412030
H        -5.14986245184728   16.04492994800936    7.91914991859178
C        -7.03343501788569   16.04459732879830    6.91103437148311
H        -7.59323320843808   15.75435342455675    7.78836451601442
B        -9.15532111614283   14.44337005037071    3.56559004620735
H        -7.98343969442391   14.37284556224229    3.64304517021020

