86
CSD_code = NAMGUE | q = 0 | S = 0 | Stoichiometry = C45H30N10Zn | MND = 5
Zn        1.48122249417508    2.93003971548237   -0.25959608723421
N         0.50328257088039    3.09792047009531    1.45935359147564
N        -1.45538092554781    1.82405669147833    0.92777940699975
N         0.14711628957283    1.58134765538030   -0.83715262808320
N         1.16466984879272    0.87092125761130   -2.88760140822663
N         2.66282425257096    2.33975437504826   -1.73012040150163
N         4.63283686192049    3.59001628986965   -1.18441955416757
N         3.02698087524056    3.84061069772380    0.57615015699812
N         2.02525348221055    4.51801063719166    2.64591726800753
N         0.52677839607848    4.63185207891056   -1.17823426019710
N        -7.95405505733279    9.22602421258381    0.17092220274942
C         0.88501350203426    3.87882324655529    2.49926124420642
C        -0.18235861006662    3.92610297480903    3.48381646459370
C        -0.31138593141667    4.56290423119606    4.70666080467663
H         0.49066851967330    5.17043552856780    5.09537321360487
C        -1.49585176642789    4.38760197603218    5.40198123182164
H        -1.62879211452803    4.87024152314458    6.35943153942324
C        -2.52383323294560    3.59698986001317    4.89301490801279
H        -3.43256261089566    3.48349180507106    5.46631197241633
C        -2.40110824639136    2.95497834616998    3.67232583765703
H        -3.19092375781201    2.33831722955003    3.27313480838965
C        -1.22019451851663    3.12695316087321    2.96991765483001
C        -0.74402875053583    2.62173592669869    1.69328041496410
C        -1.03485995717130    1.33872255413133   -0.21925143334075
C        -1.82381482602783    0.42767815321220   -1.03128078887271
C        -3.07637626256425   -0.13974263770714   -0.86785238081564
H        -3.66742530901832    0.08059146753781    0.00706233090541
C        -3.53141142385635   -0.99272366958157   -1.85910490825832
H        -4.50408268283862   -1.45287694984272   -1.76153331325344
C        -2.75832292587859   -1.27457068100424   -2.98332711848960
H        -3.14752098769180   -1.94745373978153   -3.73370872076139
C        -1.50443759833575   -0.71257312336061   -3.15340453682537
H        -0.89766190764291   -0.92848739888086   -4.01866021318657
C        -1.04314071482683    0.14248475040497   -2.16667441577362
C         0.19079478341689    0.89208184165382   -2.00376235827153
C         2.29772266566879    1.52366519608858   -2.74907275252016
C         3.37949951910947    1.44724002374836   -3.71614728988803
C         3.52854109079112    0.76772490182941   -4.91329018567907
H         2.73341332643122    0.14555064472585   -5.29294549400138
C         4.72585548882497    0.91609976769519   -5.59284796293751
H         4.87471219360582    0.39957591833115   -6.53008187452949
C         5.74822434468380    1.71822845023133   -5.09104806853855
H         6.66865210949082    1.80713093307609   -5.64984006696905
C         5.60750050639252    2.39847352515212   -3.89309286033251
H         6.39578435259617    3.01853439749858   -3.49635333470081
C         4.41205557648644    2.25724434489261   -3.20891821968536
C         3.91943711408357    2.79735872200329   -1.95267664121868
C         4.22326940900551    4.05403419292720   -0.02479090280514
C         5.04471876562416    4.89862836610201    0.82628839816525
C         6.32478073348899    5.41028208733794    0.69590846685378
H         6.91365896411928    5.19548459775026   -0.18176922689589
C         6.81180015383419    6.19744591807233    1.72580161563501
H         7.80684686994664    6.61240592723978    1.65507196359484
C         6.04488799293844    6.46594671150666    2.85740122389304
H         6.46123067691844    7.08291644749014    3.64057463694771
C         4.76486386591103    5.95668934355688    2.99617838381229
H         4.16539545681847    6.15685472057673    3.87032120353176
C         4.27012046747515    5.17099530406286    1.96892053858397
C         3.00636553126724    4.48212543532455    1.77060354815045
C         0.45372167332585    5.78276490896752   -0.51823003740954
H         1.06425033465429    5.86413973471988    0.36971873304124
C        -0.34840752277494    6.83309661848440   -0.91998490859478
H        -0.36684671269486    7.74665131546564   -0.34567106960473
C        -1.12829907636191    6.70022758811139   -2.06504629874694
C        -1.03775260734253    5.49641782703570   -2.75516834386975
H        -1.61224861724525    5.33294741378569   -3.65409898631625
C        -0.20209274159390    4.50209867980786   -2.28053726894099
H        -0.11213865685850    3.56044291641366   -2.80383663522135
C        -2.05723737168305    7.79120094417945   -2.49563573924220
H        -2.30634100440520    7.67592125081107   -3.55199728650615
H        -1.57469861737823    8.76112063379521   -2.35677864714026
C        -3.34413300186012    7.74538427283620   -1.65943201369188
H        -3.82452470151555    6.77552100237961   -1.80469029819810
H        -3.08552901812911    7.84310524923666   -0.60284866047734
C        -4.29721625501476    8.86574879650433   -2.06223736174569
H        -3.77726346564465    9.82539927461311   -1.98028224580708
H        -4.57198077003497    8.74392030109022   -3.11507695522633
C        -5.56537305948073    8.95364557323338   -1.25624388047394
C        -5.94070568588766    8.02632729078960   -0.29270558883295
H        -5.32658294383808    7.17126562026721   -0.06119352067465
C        -7.13714979185646    8.21183076210056    0.38564167728304
H        -7.45633384097637    7.50722557891169    1.14271566147154
C        -7.60136668240687   10.11110801556261   -0.74690313281955
H        -8.29315857774735   10.92957593569270   -0.89760247955169
C        -6.43141719119356   10.02272683089260   -1.47936017495049
H        -6.19032302787294   10.77428933025711   -2.21672016069434

