77
CSD_code = NAMJAO | q = 1 | S = 0 | Stoichiometry = C37H27F3FeN6O2P(1+) | MND = 5
Fe        7.77602707232121    8.91500430195419    3.99450847577485
P         8.50905665685678    8.65939373084846    0.60157225628477
F         6.32230658080936   12.99373978706135    5.34084245865450
F         5.14933545752672   12.29917449906446    7.00373144137507
F         7.27992467355053   12.48850529871508    7.20050479996905
O         6.59240449438430    7.92303684067152    5.13976095788332
O         7.24508107766016   10.58934877866872    4.83120770887656
N         8.32791914674299    7.24522190120609    3.07322713023992
N         8.56710142661731    5.15375130396014    2.45363937775616
H         8.65679794717771    4.15173533621072    2.51656334278922
N         9.20276527057816    9.85903229297915    3.03444657109079
N        10.80649263493276   11.26635714205582    2.53337521324643
H        11.52435401929450   11.96502724742788    2.64400961265782
N         6.46831672945661    9.27787829290193    2.46708948740325
N         4.94162326420190   10.26797299719790    1.24193029411881
H         4.08142085465112   10.73450947672426    0.99857527511360
C         6.30429870611583   12.11773035636058    6.35003238924030
C         6.51028060569030   10.68066726992285    5.85919286348680
C         5.94299442048654    9.66720798412115    6.60365981702519
H         5.36051988698452    9.92348129144177    7.47086537906117
C         6.02951071836149    8.31227392236904    6.20274266309913
C         5.41506393485382    7.27118723802546    7.05494543493774
C         4.93936760879471    6.10692791454457    6.45335926904301
H         5.01949231840933    6.00768739202297    5.38172633405049
C         4.36887871029438    5.10571263232790    7.21405281777153
H         3.98902019687840    4.21538983870099    6.73587171556969
C         4.28357482825177    5.24471770032754    8.58996458312419
H         3.83992773777808    4.46270347782963    9.18703163406152
C         4.77232241300262    6.38947862167519    9.19886667455169
H         4.71586962615863    6.49457847073409   10.27169701453363
C         5.33142558235217    7.40068789430905    8.43962852581017
H         5.72397281655786    8.27992961118367    8.92619560252106
C         8.36861170781068    5.99356572795209    3.50053472602190
C         8.51031319325194    7.20704373448541    1.71276212898619
C         8.66567655572205    5.90260136162638    1.32454312704940
H         8.83431980069814    5.48103671675379    0.35527864113381
C        10.03045346448596   10.76780862877514    3.52811872703402
C         9.46277674764558    9.76539486443527    1.69485556132029
C        10.46390463472865   10.64303749596435    1.37456299101107
H        10.93617312428637   10.85137866619407    0.43713734141661
C         5.28045494266766    9.85053854713697    2.48532997869845
C         6.89874916322642    9.31309634395251    1.16260821422445
C         5.94931736562918    9.92923951934518    0.39442038998576
H         5.92741039482704   10.13557894464206   -0.65548796526830
C         8.24142709930027    5.52732600548715    4.87218873182935
C         7.57023981358706    4.33934601432567    5.15916147222776
H         7.12212751969644    3.76349665238555    4.36231701143883
C         7.44067873153814    3.91383686108341    6.46842841311088
H         6.91430300648078    2.99692534678375    6.68374732571675
C         7.97729775133100    4.66235214803140    7.50216176534003
H         7.86598673090466    4.33161405679344    8.52280096793454
C         8.66014080390798    5.83577133895019    7.22277028364713
H         9.09158940500392    6.41257924850390    8.02660603891527
C         8.79794889983864    6.26198178541450    5.91697983249869
H         9.35523897313446    7.15830970727868    5.68204287131458
C        10.14460580369658   11.14851626943500    4.92299197643197
C         9.82658011430632   10.21961243369516    5.91493830069386
H         9.51596754528448    9.21980787146565    5.61401916902659
C         9.91258176159685   10.55999389729276    7.24918896856066
H         9.65860723196362    9.83612119704091    8.00864294694657
C        10.32659031370746   11.83257633825388    7.61344066776652
H        10.38793311117782   12.10186145896769    8.65567081683862
C        10.65126747395862   12.75947970563734    6.63726484166242
H        10.96436445315711   13.75230263613782    6.92009696914562
C        10.56463948633890   12.42430202541544    5.29863220328718
H        10.78951898780780   13.16592075058070    4.54643447522547
C         4.36078959597375    9.99200936586898    3.61298784289479
C         3.88723148437446    8.85773278196088    4.26427827808923
H         4.22468361966800    7.88644117157028    3.93889359858992
C         2.98304940607744    8.98530281390744    5.30368027951221
H         2.61894803639983    8.10316675447146    5.80814026568111
C         2.54675094310471   10.24022724675236    5.69442120789630
H         1.84513098601175   10.33871736770336    6.50786465039692
C         3.00495430220528   11.37117363556224    5.03786512155217
H         2.66366521486425   12.34822858889509    5.34159872831043
C         3.90455005010115   11.25144172795068    3.99437884200960
H         4.27440283064231   12.13235340166703    3.49058415263755

