75
CSD_code = NAMMUJ | q = 0 | S = 0 | Stoichiometry = C39H31MnO4 | MND = 7
Mn        5.00763242381611   10.16003141241661   12.19393240285791
O         6.35951855992944    9.88859619452530   11.22602960878590
C         7.55291218934621    9.73267239209153   10.93640392100322
C         8.12659059173094    9.00199985319279    9.83887012462259
C         9.49010859047997    8.99421117453660    9.96169536720314
C         9.92150803252386    9.66910288958989   11.23935645892798
H        10.75130965105697   10.35699369997007   11.07044654770780
H        10.25692220237188    8.92520213761524   11.96956558506328
C         8.66026113140125   10.39961052537550   11.74342720744059
C         8.68668115310256   11.86831506084100   11.28711759653955
H         8.86328903032158   11.93182834619565   10.21412944253786
H         9.47740748055988   12.40791426565685   11.80393580326189
H         7.73403002620920   12.34706783886053   11.51548925934637
C         8.41589611810218   10.35216237220332   13.22851436030800
H         8.59453757768931   11.28762737351586   13.74124994805676
C         7.98851694409646    9.31662621478790   13.95067647509570
C         7.86461509346590    9.41403908011271   15.44149004668488
H         6.93866323142756    8.96209180606640   15.78875156776695
H         7.88588648973956   10.44918528192919   15.76945893219824
H         8.69367396425153    8.88124851698849   15.91115406631342
C         7.76757772766218    7.93777724697048   13.39007458480534
H         8.28773554443302    7.83826365516413   12.42997281037777
H         8.23308733434784    7.21319953336635   14.07047520829731
C         6.35530638343124    7.45931102390557   13.15828017908267
C         5.19589580683675    8.13991838509284   13.26204219915945
O         2.11354719010769   10.16016449587333   11.66128632408691
C         3.24186628755744   10.17622871932253   11.91285341803461
O         4.80640145880132    9.64281155454786   15.11303711632233
C         4.94658577178848    9.50884850498627   13.93347377178346
O         5.05779780748601   13.03000696657542   12.83720771761963
C         5.01670921357707   11.90289190616565   12.57936001163227
C         7.26262460617649    8.28275631754526    8.89808756637679
C         7.57356731458193    6.98264045378183    8.49717731134055
H         8.50597369634720    6.53580960244043    8.81331908113094
C         6.69766151564480    6.26687462332703    7.70518569686551
H         6.94828856044453    5.25951906493958    7.40654086303331
C         5.49827928072843    6.83279677335292    7.30226845160991
H         4.81117110734963    6.26709118518149    6.69085490415415
C         5.18519286068870    8.12566422309498    7.68504977120952
H         4.25414287287904    8.57503928704758    7.37258339416654
C         6.05900374107770    8.84727853946284    8.47823793553757
H         5.80629349509718    9.86145191189845    8.75932347891268
C        10.46006303323991    8.47000138581767    9.02447964307235
C        10.20017808878997    8.46620968400104    7.64913543911008
H         9.26288994999778    8.85972617130397    7.28534587465248
C        11.13839646085903    7.98924680956213    6.75731264934614
H        10.92251135219891    7.99829507401276    5.69916517739483
C        12.35519929812736    7.50523057904117    7.21293963364565
H        13.08585384881112    7.12839560624195    6.51325543149335
C        12.63128153016519    7.51472447203799    8.57053314460243
H        13.57934827004341    7.14384382493943    8.93163784456500
C        11.69995266675268    7.99887492708609    9.46786070615869
H        11.92386549444775    7.99186123961824   10.52429882731105
C         6.31424990958277    6.02084936646822   12.78906220246870
C         5.62916981295010    5.11764315852887   13.59705072649339
H         5.12644777323826    5.47416943698174   14.48394615211039
C         5.59637293633603    3.77510475690146   13.27186143831355
H         5.06312964863728    3.08427779342377   13.90767150476269
C         6.24059421605714    3.31675265415335   12.13449901596092
H         6.20725183296205    2.26861183871686   11.87746435008850
C         6.92749955065742    4.20771028477379   11.32883322175154
H         7.43100809436427    3.86027387365440   10.43855715828599
C         6.97275349820362    5.54962721559896   11.65922256967809
H         7.49915088550785    6.23798384154210   11.01346084012129
C         3.91296257684650    7.46801932542307   12.90180393636937
C         2.87289539426370    7.38330438210297   13.82472225180800
H         2.99954910235189    7.80511122998307   14.81140826379171
C         1.68698645059651    6.76279264752848   13.47952339864532
H         0.88792685951766    6.69892347374118   14.20278786907710
C         1.51919262621472    6.23156271192902   12.21171050385357
H         0.58948387719288    5.75262576020241   11.94346270256258
C         2.54354070455780    6.32383597671199   11.28472099137562
H         2.41599230702626    5.91985530113691   10.29102378876278
C         3.73492751200581    6.93516059591901   11.62417736424883
H         4.52890437882396    7.00322419041256   10.89027886083584

