42
CSD_code = NAMNIY | q = 0 | S = 0 | Stoichiometry = C20H17ClN2PdSe | MND = 4
Pd        3.43073079642627    7.30407773364202    3.88957042107820
Se        4.75962313511798    9.25327557770401    4.83539475199325
Cl        1.67316721551022    8.45202535571153    3.16172333515610
N         4.84337633872499    4.92816070353753    4.41106550122272
N         4.81678707003300    6.17747416502750    4.69404085155205
C         0.93207131919781    3.50121152884845    0.61108248964737
H         1.38880155731539    3.44515470624969   -0.37797390748029
H         0.13124929059846    4.23490483035011    0.57425086812922
H         0.51077706463407    2.52380771512015    0.83837631147243
C         2.99466058756705    5.56038156338802    3.02773114493451
C         3.90752884912730    4.57155382996455    3.49323357679928
C         3.82616309484403    3.25282591729556    3.02371052658432
H         4.52880569869413    2.52162873752756    3.39284722449483
C         2.86166960251408    2.92371380660166    2.10239522113762
H         2.78981546038342    1.90882644518569    1.73784209038080
C         1.96454659815192    3.88328318757425    1.62359461954067
C         2.04911664602979    5.19511958188286    2.08866064335904
H         1.34537904429265    5.93139021860325    1.72048090583835
C         8.01056275757768    8.10000971707638    8.98941265896382
H         9.03678252184817    7.74282355285627    8.92165132167394
H         7.59130695083677    7.72570049321353    9.92294713123388
H         8.01639104405781    9.18590953662165    9.02459631676852
C         5.65904308865665    6.63498326343346    5.69308762052514
C         5.70918714601710    8.00867543750232    5.98160740646637
C         6.46349978732041    8.47542092053499    7.04554719785095
H         6.47101099466249    9.53685057699304    7.25383892580690
C         7.20522520297359    7.60283932894838    7.83124940741606
C         7.18786684814368    6.24395650647070    7.51514245112880
H         7.77098159441570    5.55656620921917    8.11017272566717
C         6.43230006946991    5.76393634685272    6.46976427426053
H         6.39883947504830    4.71157893903635    6.23289818634612
C         5.77547928117615    8.82368555964655    3.22108002952882
C         7.13998291199163    8.58750809944685    3.30464043960746
H         7.64884309039912    8.67164376972290    4.25532955979577
C         7.84174377342847    8.23291731790952    2.16476025247868
H         8.90253003531670    8.04220381590666    2.23182948537487
C         7.18950135793301    8.12529737099484    0.94848659713461
H         7.74027176780363    7.84197559049465    0.06442119862471
C         5.83109368545639    8.38880602329404    0.86389718360596
H         5.32246250169246    8.31755457321623   -0.08570344605841
C         5.11307055265776    8.73969754104659    1.99603167577180
H         4.05275419188721    8.98534390541139    1.91678482419713

