60
CSD_code = NAMQOH | q = 0 | S = 0 | Stoichiometry = C19H31BN6OPRh | MND = 4
Rh        8.57342345238623    0.16625671647369    9.56756126786805
P         8.40207286650775   -1.29823214924780    7.84133687365085
N         8.80948922828358    1.37061740441188   11.21434244356093
N         8.67562684139824    0.73536947488954   12.38594153230556
N         9.65763441977883   -1.37788422482529   11.67648494145865
N        10.00041536772580   -0.90209114332471   10.47442645650796
N         7.19690964915622   -1.08295758692081   11.48610320272629
N         7.17190333802972   -2.23137252497620   10.77289573305735
O         6.53669580436147    1.92751335279172    8.29899705464227
B         8.42289720110206   -0.78677024643519   12.37408069399227
C         7.32013701171800    1.24445147898160    8.79803849230400
C         9.09254200506118    2.64568232008757   11.45360693342061
C         9.14359482601788    2.83852286866485   12.83680019439620
C         8.87817223774400    1.59944397747186   13.39477937533646
C         5.93291597637265   -0.62354768099686   11.66872917955199
C         5.07630016766869   -1.49853518134924   11.03418279162912
C         5.90338780124524   -2.49593710660568   10.49680432949396
C        11.20519172950285   -1.36846436926923   10.16623421530081
C        11.64373966759509   -2.19715883474463   11.20140568173034
C        10.62992448632821   -2.17648573946072   12.14447120944162
C         8.93279799769947   -3.02817389336844    8.13516146950113
C         6.68877591568632   -1.53644316081322    7.23126127647930
C         9.22230772616028   -0.95991399108949    6.22524113834578
C         9.31403256488822    3.62486717780756   10.35590946723186
C         8.82907520587441    1.21951337114488   14.83098984350768
C         5.60994604322480    0.62032014846608   12.41867492834816
C         5.47303267769812   -3.73171954790829    9.78002654455665
C        11.91786970279399   -0.94411155626811    8.92950183950711
C        10.55858783256101   -2.88142665672054   13.45041526412676
H         8.28316714105295   -1.21320067315318   13.47191379266404
H         9.34998371215799    3.75213627244770   13.35660125478650
H         4.00864023116451   -1.42922767169238   10.96444367299150
H        12.57149889579870   -2.73030214361414   11.25753686157813
H        10.21111730396576    4.21175495932195   10.54323998770272
H         9.42243444411110    3.08769130042641    9.41195329824752
H         8.46958538880282    4.30912871256882   10.27566095224088
H         8.95125494011136    2.10571075758314   15.44811243379063
H         9.62520651369299    0.51432093607505   15.06617076347763
H         7.88077714243135    0.74480896719346   15.07553722123131
H         4.53091130874804    0.74091354386012   12.47522766020382
H         6.01458931654915    0.57777105488913   13.42885618706314
H         6.03069550385199    1.49305182462024   11.91891614142724
H         4.63145739586012   -3.52333775761893    9.12190126495972
H         5.15311528184049   -4.48187790634328   10.50393017879839
H         6.29187311668198   -4.14710356353279    9.20033396891417
H        12.86708666640205   -0.47486726515486    9.18642286419183
H        11.29839115916962   -0.21855025000892    8.39775918361997
H        12.13077123662290   -1.79226939693608    8.27914436641458
H        11.40207832209725   -3.55985198548606   13.54849247533199
H        10.58296559398036   -2.17006929613332   14.27502727997227
H         9.63236368728716   -3.44760303131433   13.52198758890911
H        10.01593399362844   -3.07012912623426    8.22027486732629
H         8.49603518463958   -3.34964798600349    9.07868144638075
H         8.60669835634596   -3.67537545154506    7.32180061689448
H         6.03737269305026   -1.73576017904997    8.07714231761529
H         6.63632334978836   -2.36159313087816    6.52191269140463
H         6.35668125676590   -0.61956207768695    6.74665156796410
H         8.91401158232030    0.02142239254113    5.86942198926063
H        10.30331164681366   -0.96512662729000    6.33777607453965
H         8.93396788968850   -1.71528789870864    5.49506465613589

