80
CSD_code = NAMQOK | q = 0 | S = 0 | Stoichiometry = C35H37N4OPRuS | MND = 8
Ru        4.21363831825143   10.19267336490285    2.13623286727940
S         4.94868686709327    9.30882027301929    0.02193789969541
P         5.91946397102273    9.30858732437242    3.32098753446387
O         7.78017958261932   13.61327963131378    0.28605561438311
H         7.11134621907535   12.87315441272254    0.18632544226137
N         5.45894568308116   11.71181740862612    1.59273263514339
N         6.01736705163923   11.73468143476564    0.35942649594279
N         6.41132008642600   10.72920903080073   -1.65089392905174
H         6.11188829501643   10.03549684587019   -2.31301214423925
H         6.78121257326771   11.59859469017477   -1.99642823451127
N         9.60673242661969   16.72426653912696    3.31753603906177
C         5.82443433288483   10.71756368155502   -0.42951888821163
C         5.78829064943683   12.62857250368769    2.45508019474015
H         5.22218021903599   12.53693062512432    3.37849595322203
C         6.76463185013056   13.68382085243229    2.50593283052046
C         6.83574250490640   14.35687954915179    3.74133851133922
H         6.13208826236427   14.07645570148621    4.51325631118784
C         7.74018516454576   15.34347741766445    4.02514460812021
H         7.70537397830765   15.80456709373981    4.99792337128487
C         8.68206940508461   15.75001870834048    3.06112674955265
C         8.62067268366639   15.10221187596078    1.82724986579697
H         9.30392123496165   15.33868742422218    1.02920950674589
C         7.69961182858185   14.10719964954570    1.52912760085919
C        10.43830154604082   17.27750134305014    2.27311417656214
H         9.87662603593001   17.30511794322288    1.33642106550789
H        10.67735296010296   18.31077352515139    2.54076523544336
C        11.73776796472736   16.49260241282150    2.08163505445517
H        12.32186092694631   16.49452894480428    2.99926546974493
H        12.33235306395668   16.94210448664433    1.29050490236169
H        11.52193892942149   15.46136768245718    1.81642519817929
C         9.77629742400450   17.29338554028420    4.63419251209112
H        10.81466398551457   17.62490981698836    4.72760160644022
H         9.61361055710078   16.52128624707029    5.38998366909202
C         8.84296805858495   18.48040988651017    4.88660411596666
H         9.02912910104234   19.26983038412774    4.16201077891863
H         9.00544533208445   18.87996818268729    5.88445247589886
H         7.80441889439081   18.17374735940192    4.79468750128996
C         2.65638606586165   10.74991271794834    3.68728535327383
H         2.74371827286590   11.13137524333298    4.69593231611317
C         2.40750095248870   11.51441622822180    2.52589155805177
H         2.35848219579789   12.59507462109946    2.47842923239106
C         2.13947761285821   10.63083127519866    1.45453879109539
H         1.77974356412987   10.91413272160825    0.47397626017259
C         2.17066606804469    9.30027237717249    1.97242249480205
H         1.88157918150168    8.40997841892795    1.42857090122418
C         2.49842175921149    9.36918951791827    3.33913576706490
H         2.48104447180993    8.54728040846488    4.04457074634194
C         7.51664537347163   10.19670396048310    3.24169829294765
C         8.11862398639636   10.18601767912891    1.98246048447552
H         7.68198282906949    9.57547958417449    1.19910652742442
C         9.24566414236428   10.94460918602231    1.73870395539105
H         9.69621138055806   10.94189369311545    0.75739115989691
C         9.78455532116307   11.72386255868449    2.75109147164294
H        10.65455828507616   12.33375771038872    2.55861611802446
C         9.20731440475669   11.71961367214646    4.00835827797354
H         9.63190821880984   12.32003985923927    4.79985979911816
C         8.07576747564196   10.96106169511424    4.25736999430231
H         7.63532638310091   10.96294148595885    5.24380139293686
C         5.58241496061442    9.15984181510781    5.10777718980978
C         5.51402121770445    7.93800925156792    5.76661174521548
H         5.72547648568987    7.02371273532841    5.23097327092461
C         5.16928874226947    7.88960410073755    7.10676783762904
H         5.11457200267509    6.93524978391548    7.61051480958700
C         4.89097350524282    9.05441091425179    7.80075349615246
H         4.62195177149928    9.01175388654361    8.84598597533755
C         4.94811925372972   10.27616480966990    7.14816715367227
H         4.72417562821301   11.18713814131873    7.68525055248730
C         5.28096765885072   10.32614455679903    5.80852867010284
H         5.30444308788849   11.27320207459840    5.28494017835326
C         6.47028803215287    7.61603600430031    2.91755720672622
C         5.58613482812221    6.78138084319509    2.24500741934016
H         4.61727993423491    7.17226449776428    1.95509465522449
C         5.95061965880993    5.48261049932093    1.93967405722406
H         5.26341357546529    4.83772549392126    1.41178187850406
C         7.20081892982078    5.01284134421043    2.30710673075176
H         7.48973760668387    4.00005882061346    2.06617998323928
C         8.08482261131004    5.84096704233658    2.98155314008363
H         9.05937521143875    5.47172771028174    3.26744608100268
C         7.72415556275597    7.13955513633698    3.28935092193568
H         8.40965382207842    7.78955612920320    3.81633555434904

