121
CSD_code = NAMREY | q = 0 | S = 0 | Stoichiometry = C58H42Cl2F10N2O4P2Pt | MND = 4
Pt        3.38981970139913    1.87180451475208    4.04276648992365
Cl        1.68721781918416    3.35349661558736    3.41835624015339
Cl        4.95755291379293    0.29723721180371    4.65352015902242
N         4.57061156802579    3.22552925443381    4.84101591875562
H         5.08069950385574    2.83649745488899    5.64472240942886
O         6.09512116715500    3.62943292554252    7.16945125136776
O         7.42555404261438    5.45682015595582    6.95742238056880
C         4.86603269114374    4.46336643692606    4.60245599873396
C         5.81284530311366    5.19007899774820    5.37901010460748
C         6.39858754045156    4.63416137899809    6.56421710745015
C         8.09717936072542    5.13363581985456    8.16977119003696
H         9.10606600135245    5.53972203193302    8.06332157144681
H         8.14105489477112    4.04280340922336    8.25789589902761
C         7.38731173525303    5.72946764868984    9.37710833584498
H         7.93847323319986    5.48520753345563   10.28053857506193
H         6.38448026276559    5.31686945240754    9.45421169983571
H         7.31748810803690    6.81089632878414    9.28212650549390
C         4.15072365753571    5.12156704972500    3.48097863109431
C         4.19642231691031    4.59403973377890    2.19320670139552
C         3.49656510408422    5.18144570329793    1.14814583679292
C         2.68055590785597    6.28086960975790    1.39179898198145
C         2.58826170301595    6.79527429631284    2.67935807681608
C         3.32451551735222    6.21619778482583    3.70227938331024
F         4.97288715066538    3.53386392436253    1.94168839357510
F         3.62690005878915    4.71781937725676   -0.09435862063000
F         2.02328664570527    6.86446861825130    0.39113387018802
F         1.82754660617272    7.86693326379237    2.92163290963327
F         3.24194976246929    6.74218899560515    4.93100082137419
P         6.65351171678270    6.69027426295394    4.99124441840569
C         6.60591619553623    7.89413808998037    6.35342881689010
C         5.39633147825678    8.07628467810044    7.01665282549988
H         4.52758419962589    7.51163580511588    6.71333866877155
C         5.31855403466766    8.96820557439228    8.07139352307791
H         4.37957821579379    9.10963978563562    8.58480591639733
C         6.44346010043296    9.67168371145386    8.47145789538562
H         6.38187016470876   10.36523212350073    9.29651727384969
C         7.65151117242957    9.47473219775898    7.82203379455439
H         8.53222232438930   10.01027021838946    8.14407019782691
C         7.73825906250645    8.58473805673720    6.76560464767211
H         8.68653815957697    8.41294302977869    6.27838079031530
C         8.36138730611665    6.42800019277623    4.42353632282380
C         9.07657122817204    7.51655350546417    3.92945997946678
H         8.61958880133547    8.49746731925711    3.91348673830616
C        10.35869193118519    7.33478026199645    3.44556984059643
H        10.91551872214119    8.17974602912286    3.06888030187198
C        10.92285822340102    6.06831478131102    3.43393228547451
H        11.92313412059373    5.92886300101625    3.05293107958139
C        10.19952169387643    4.98025961208419    3.89387619855814
H        10.63008547141615    3.99100319907794    3.86442246266397
C         8.91774923371644    5.15575967063246    4.38553889307327
H         8.34571930440250    4.30685709704641    4.73136558806956
C         5.95444417259068    7.55426395833521    3.55363121997771
C         6.21810688010328    7.03473398040155    2.28784684424032
H         6.81016470745082    6.13417450822637    2.19320397730425
C         5.72713369695343    7.67083836710755    1.16373395380674
H         5.93082813847337    7.26575463615369    0.18415246507571
C         4.97853890058678    8.83134573276013    1.29542777649981
H         4.59359807621843    9.32571645302131    0.41685643799694
C         4.72689471241865    9.35670831971125    2.55172046461645
H         4.14676253934908   10.26089862257904    2.65423848115709
C         5.21516845714580    8.72348735691347    3.68245651165586
H         5.01631852513241    9.13386569920052    4.66179272929708
N         2.17056854584863    0.32955980157474    3.46916512051857
O         1.96870677359587   -1.53775622497522   -0.35523898901732
O         0.88513035289613   -3.23232996950666    0.65361898935940
C         2.12250603796630   -0.27803204245690    2.25849891283483
C         1.55242331957823   -1.47696189475721    1.98663547047738
H         1.11207487631062   -2.06953409149195    2.77637999777562
C         1.51239289592585   -2.03713587107054    0.65386903571487
C         0.78690879504980   -3.87962624244724   -0.61163982953805
H         1.79279685023053   -3.99076521712037   -1.03315406890077
H         0.20656979407980   -3.24416088138764   -1.29106849666609
C         0.11899554319809   -5.22720854729447   -0.41189001597482
H         0.02752364952654   -5.73499776181505   -1.36769410763906
H        -0.87029995760583   -5.09315674849553    0.01746788871990
H         0.70988400007386   -5.84073290285947    0.26291035881896
C         2.74898579140436    0.51245589094028    1.16348475491025
C         1.97367598965453    1.37557892564023    0.39634915222190
C         2.52043480858808    2.07719340364384   -0.66986210275328
C         3.87216473503414    1.93180296401819   -0.96607488651978
C         4.66328540675277    1.08195644029194   -0.20236646401241
C         4.09615204013616    0.37135359033334    0.84980818646782
F         0.66978683913480    1.49428447059744    0.65681198641636
F         1.75520295495112    2.87638484889047   -1.41842270632824
F         4.40827227282156    2.59362583861385   -1.99506644197906
F         5.95843070970957    0.93470902986477   -0.50135675965135
F         4.84355651750741   -0.50111593152759    1.52395975419934
P         1.35876753206005   -0.21288808971333    4.77328512659757
C         1.36796992466089    1.12759458335341    5.99073707107944
C         2.52114046331094    1.31095900676705    6.75975534708673
H         3.32317547144259    0.58531561849762    6.71460113656039
C         2.62271459594252    2.41754179133376    7.58413510714834
H         3.52730192845634    2.57860751908709    8.15087720457603
C         1.57446326791792    3.32426117646086    7.65972550546446
H         1.66379611366893    4.19800722433892    8.28831984867596
C         0.41459739104784    3.11319601204311    6.93509290937668
H        -0.40296433513068    3.81512011667913    7.00163620061352
C         0.30561427315601    2.01642916330229    6.09561883473658
H        -0.59034209275440    1.86673278087746    5.51084877583961
C         2.08712005957472   -1.66013650089258    5.57938517731839
C         1.65212416460454   -1.99629189443967    6.85868297192679
H         0.89569327214702   -1.39100355178314    7.34222849814208
C         2.20092489848434   -3.08956101765970    7.50151513223141
H         1.86799270817297   -3.35479334566159    8.49420311976732
C         3.18606315936847   -3.83737901456622    6.87393464713669
H         3.61793438950094   -4.68704821801726    7.38164512372512
C         3.62624290979670   -3.49259027477795    5.60657282236780
H         4.40376711330121   -4.06751519943304    5.12762078674155
C         3.07875493497854   -2.40326003557657    4.95170425129428
H         3.43485117599927   -2.11505498617778    3.97423695365317
C        -0.35798517836965   -0.55038574484133    4.30603968242243
C        -0.95239407036584    0.35761760855553    3.43314084974896
H        -0.39008384264369    1.21041352789273    3.07653681573472
C        -2.25571620718649    0.15314790563255    3.02003877696014
H        -2.71573475297040    0.85203753508028    2.33849848356284
C        -2.96117345122907   -0.95036370021624    3.47393626763123
H        -3.97720048238637   -1.11231077780317    3.14596941118861
C        -2.36622388633383   -1.85233869162760    4.34165489378135
H        -2.91714221994759   -2.71407676151756    4.68833870517031
C        -1.06198750766557   -1.65733716795019    4.76067712896262
H        -0.58822320782501   -2.36550284003061    5.42601555054265

