95
CSD_code = NAMRUO | q = 0 | S = 0 | Stoichiometry = C39H47BN6SZn | MND = 4
Zn        4.58523101835650    5.61350854386853    3.98246183507154
N         3.38344322352472    5.53975582293840    2.36118293860467
N         5.49243542526609    3.85292409311965    3.50637281223360
N         3.19654441540158    4.69199688930478    5.15250654629762
S         5.70367458055672    7.37798598795910    4.88038001559062
H         6.65671545729591    6.64346245821751    5.42366342937452
N         2.95364941666262    4.29249962687518    2.10984892736264
C         2.40946651705757    4.23812178059054    0.88079960754985
C         2.49665546622108    5.50081405320073    0.32391350814012
H         2.14256292101078    5.80692993059856   -0.63909242664215
C         3.11631923060455    6.29610520367683    1.29515498065711
C         1.85244509450678    3.00174230101883    0.27294924823035
H         2.63273307740541    2.25087027251980    0.15859380215402
H         1.44007313924135    3.23256160003156   -0.70563864854707
H         1.06994288539752    2.57727375211681    0.89847000537633
C         3.44381947478075    7.71305222377428    1.24536116942105
C         3.44788585375442    8.48484824996611    2.40432016309619
H         3.17428605972974    8.03573745034974    3.34875760078701
C         3.77965084499661    9.82411315957689    2.35027027098694
H         3.78936675289281   10.40157737323999    3.26320001152437
C         4.10496916526227   10.43581667062833    1.14590533246511
C         4.08068906362319    9.66565277248291   -0.01203064325168
H         4.32431024015786   10.11474221753291   -0.96387335738015
C         3.75638063872906    8.32503723501687    0.03310836726307
H         3.76216762879368    7.73853034291886   -0.87423698621422
C         4.47184726232664   11.89846629063893    1.10430502934051
H         4.42959303191855   12.28791586187566    2.12755427245537
C         5.89921742986374   12.08392088535638    0.58412714637007
H         6.59814706760204   11.51742587058044    1.19554971018461
H         6.17939048654234   13.13469596172562    0.61969694160750
H         5.98540493114093   11.74093274983048   -0.44425054652602
C         3.47436923287384   12.68677381382738    0.25202680309568
H         2.46237163578696   12.54633452628336    0.62625257544235
H         3.50561281458418   12.35835034033693   -0.78407331643592
H         3.71014113278776   13.74850587357244    0.28200846402842
N         4.59854596495833    2.86917680493813    3.32681189174663
C         5.22007346230787    1.67699770131465    3.34707402037698
C         6.56889470080525    1.90814165305427    3.54847954352047
H         7.35031071294088    1.17794893829026    3.60074490741019
C         6.69866519231087    3.29864725167779    3.63949134257304
C         4.51897815786005    0.37688503909171    3.18557087183462
H         5.23069905188407   -0.43660202874506    3.29739361001161
H         4.05760247971567    0.30866773105579    2.20176200451661
H         3.73298755065480    0.26961197480188    3.93103229349041
C         7.90094246790608    4.09497212067918    3.83961945363523
C         8.93800008658951    3.61991143592492    4.63771174597172
H         8.84903555148688    2.65093699194034    5.10692712572766
C        10.06303488653687    4.39191266246937    4.85315895768670
H        10.85441459385062    4.01202731992179    5.48457728707578
C        10.18974553379968    5.65224610181463    4.28168865162808
C         9.16034667628307    6.11341798032451    3.46821490782171
H         9.23033886082801    7.08636230213039    3.00624514104610
C         8.03358825555345    5.34827000755594    3.24491371675269
H         7.24988582852327    5.71815934732342    2.59782079769272
C        11.40866325281456    6.49729717549714    4.55475420579387
H        12.08897710508685    5.92030936482465    5.19193186317211
C        12.14676937724448    6.83805614204283    3.25871103798084
H        12.42048237596350    5.92867314400682    2.72764474150527
H        13.05396810416757    7.39639550273876    3.47964760042336
H        11.52321029178508    7.44290898119556    2.60556428437181
C        11.01347060459973    7.77020038914590    5.30712429924304
H        10.50173462744275    7.51869510115111    6.23356138746416
H        10.34561479184559    8.38202404487074    4.70635233820694
H        11.89788263897718    8.35651100822280    5.54725125176848
N         2.57667415904157    3.69223582347386    4.50496475918915
C         2.63302100226938    4.83160518790698    6.34868734762661
C         1.62196097320806    3.87960946726112    6.48693935107506
H         0.97201414836494    3.73270375536817    7.32532811056589
C         1.61148293997620    3.17828470995331    5.29011901658593
C         3.07643413673711    5.86522424076375    7.31876266056185
H         3.52594723519910    5.39555443524746    8.19288852076193
H         2.22628056134971    6.45699085018281    7.65318434577130
H         3.80920608910469    6.52303896351975    6.85660517094909
C         0.70828069045636    2.10355036133440    4.88767092246024
C        -0.04375257641266    2.20414395821089    3.72183062385064
H         0.04532966760029    3.09059685957179    3.11134460347662
C        -0.90972857884146    1.19000641385724    3.36082991482294
H        -1.48983869978644    1.28389887533919    2.45306311379444
C        -1.05341624556972    0.05345387094246    4.14740900431152
C        -0.30899304119322   -0.03506790998265    5.31805570214733
H        -0.40383281402761   -0.90359632865993    5.95272727406800
C         0.55644081317842    0.97585149798073    5.68794134606863
H         1.13105902300039    0.89202749663017    6.59907074428951
C        -1.99761476906589   -1.04858472143074    3.73547147158639
H        -2.48192344724800   -0.74983809432689    2.79901080394879
C        -1.23233269763611   -2.34943647802735    3.48175661067716
H        -0.75291085589997   -2.69930523207820    4.39251746737753
H        -0.46383581020884   -2.19621559866768    2.72705723869882
H        -1.91156209420236   -3.12386255833083    3.13243224494586
C        -3.08775102536042   -1.25622657788733    4.78889039883601
H        -3.61289688518390   -0.32295734212483    4.98011208513305
H        -2.66056412528985   -1.60741525766744    5.72464635649153
H        -3.80823282520976   -1.99428521716974    4.44348377754632
B         3.10143829786698    3.17870567823128    3.15518850214371
H         2.51724095240518    2.20816449579641    2.82768364007346

