59
CSD_code = NAMSEC | q = 0 | S = 0 | Stoichiometry = C22H22F6O6P2Ru | MND = 6
Ru        2.93420211335845    1.58788381925036    3.81162661894275
P         4.36695537570427    2.55713401471293    5.40825635957990
P         1.52678720101324    1.13851513940797    1.97940678587151
F         0.81431476318932    5.58581329723501    5.08430595510230
F        -0.10441754951192    5.46451871169813    3.13510529632855
F        -1.13095141830012    4.68831641173765    4.86319528226923
F         6.49045684098493    4.28772095406191    1.54348986887638
F         7.14866552102678    2.34937213739166    0.86803877113326
F         5.32307062409807    3.19100355758229    0.09708066642993
O         1.09685388974812    0.35788057653297    5.83005810945882
O         4.56762912164049   -0.90125380858554    3.49680839710968
O         2.00385288026107    3.48190414419878    4.03444852658279
O         0.04995928390467    2.43816043115498    3.85295396646875
O         4.02423265114996    2.56060688765494    2.27272360284986
O         5.87892526450516    1.84828720594540    3.26885252744337
C         1.80574582517197    0.81728610569607    5.06420493724551
C         3.93498108092659    0.03890226703651    3.62301593199411
C         0.75674117509271    3.41718165185863    4.03908606948135
C         0.06939076727716    4.80164310596333    4.29134677280519
C         5.25893071024384    2.40710895629972    2.37627585422822
C         6.06786491019284    3.05790671541908    1.20360578884836
C         5.06035558261552    4.19456592880107    5.01139355926478
H         5.89200195291464    4.12110490813027    4.31471189348091
H         5.38923489513300    4.66943229522939    5.93718356464321
H         4.26137458115774    4.78917376117377    4.56380573576584
C         3.40172970179782    2.99276431677618    6.90960616141971
H         2.61961058892408    3.70199496016565    6.63934507650192
H         4.06024314067179    3.44458562107793    7.65209286299091
H         2.94574599011998    2.09897002742530    7.33392998748387
C         5.67642902742502    1.53920118475127    6.13192977772386
C         5.31472507047415    0.25988397569308    6.54209649676835
H         4.29074865213966   -0.07206438145299    6.39757442171672
C         6.25278101347020   -0.57728732758314    7.11428451292141
H         5.97036051745031   -1.57057547835546    7.43009406917128
C         7.55948569009537   -0.14197348829262    7.27251982149767
H         8.29651472762516   -0.79760100887955    7.71164161590888
C         7.92215461804069    1.12822171888929    6.85886720807853
H         8.94248798945554    1.46259309486392    6.97495107602363
C         6.98431909550401    1.97222379902027    6.28870317104819
H         7.27710444569042    2.95584833542635    5.95603733681721
C         2.45922563927821    0.19408823549586    0.70907206310220
H         3.31590528773389    0.78326354370831    0.38254515729859
H         1.81302149142134   -0.01091814286382   -0.14499891396682
H         2.80979071556567   -0.74933631745894    1.12596660482989
C         1.00369937825503    2.56248879839204    0.97052868120559
H         0.20749537354119    3.12558304802727    1.45143875197792
H         0.66884716564781    2.19848485079100   -0.00218497035473
H         1.87527762458826    3.20643204460618    0.83599747680865
C         0.09994238853956    0.05365740540248    2.22787752536353
C         0.32895488945968   -1.12139937233557    2.93685337182519
H         1.32612481554156   -1.32415781739739    3.31647834999360
C        -0.70495988512277   -2.00921775065785    3.16246517168411
H        -0.52544664247332   -2.91979135909330    3.71449205094852
C        -1.97531420726842   -1.72269113014468    2.68693378376328
H        -2.78699468617074   -2.41094380627236    2.86961484063978
C        -2.20598443836069   -0.55066997583559    1.98757319071301
H        -3.19813758555579   -0.32480464008530    1.62570719059781
C        -1.17170464041153    0.33999697710690    1.75521963443085
H        -1.36154099653833    1.25818088348359    1.22156560083478

