70
CSD_code = NAMSIG | q = 1 | S = 0 | Stoichiometry = C29H30F3N2O3P2Ru(1+) | MND = 6
Ru        1.63001213110014   11.13897279234630    4.23890197111011
P         1.34652556718267   13.34095510152440    3.49660101073799
P         1.90892444607232    8.99038756533743    5.19971244381999
F        -1.19043963347984   12.93348170690092    7.64839024034362
F        -1.63942178640451   10.96304900771261    8.41182093603587
F         0.26740948245780   11.87975488014427    8.83842969947979
O        -1.08976998452692   10.30177423159905    3.29420555153481
O         0.76344216414361   11.90436053186385    6.05453021848691
O        -0.30570757008790    9.97418504513303    6.26491989017510
N         2.67682378761120   10.63958327557306    2.61065289798646
N         3.45864588212106   11.66492355726746    4.84725169470772
C        -0.05494979342361   10.61709344623334    3.64967522617921
C         2.19338918880617   10.10741472975522    1.48594524894494
H         1.13172642552704    9.89019045602114    1.47599615656069
C         2.97740331676324    9.83530711983386    0.38296501142602
H         2.53348294494894    9.40426836030731   -0.49936614959832
C         4.33486681866927   10.12445813556052    0.43587017669951
H         4.97697329959199    9.92473961608228   -0.40643629345376
C         4.84521475634569   10.67304303260292    1.59565398053530
H         5.89360918571386   10.90715410379608    1.66704972872216
C         3.99822328165537   10.92338096799791    2.67316244504936
C         4.44249169118252   11.49470315016548    3.94218713379633
C         5.76077271711446   11.84512653765230    4.23451465641601
H         6.53599820884782   11.70786519913737    3.50014374626669
C         6.06462638777881   12.36640821352283    5.47752024921110
H         7.07791778694390   12.64089475210336    5.72405333095768
C         5.04093452262905   12.52923216862577    6.40327903037249
H         5.23442628194193   12.92941327628569    7.38527159953559
C         3.75622111720455   12.16759087384350    6.04369019259005
H         2.92589953956834   12.28741828158942    6.73154733583572
C        -0.03654658163767   11.11386420630717    6.60763532274665
C        -0.67966959980115   11.71957617793062    7.89578093247319
C        -0.23014528581011   13.76411001009911    2.68521881663646
H        -0.44963448068940   13.07692169120478    1.86965858117523
H        -0.19054604913264   14.78655961826141    2.30770680498202
H        -1.02057266145472   13.67954770748972    3.43280886972437
C         1.44318353628971   14.63059872202005    4.77844179135018
H         0.58469063375489   14.50482123797155    5.43951267539037
H         1.40888064409302   15.61363052196317    4.30657368048280
H         2.35021936521362   14.53354966287756    5.37259295145083
C         2.63007077608832   13.76767220993856    2.28313649570343
C         3.83714866403062   14.33225875122464    2.68464195834357
H         3.98290567865937   14.62908204351367    3.71374700378713
C         4.85166151587223   14.53379399878977    1.76543591412941
H         5.77974692361096   14.98476723240149    2.08279066412090
C         4.67636306047642   14.16292289932458    0.44281924728065
H         5.46778320236993   14.32316350698411   -0.27271607534463
C         3.47956282001889   13.59331935015235    0.03746505904569
H         3.33766733539570   13.30985416560409   -0.99430060526036
C         2.46387563514220   13.38983969687927    0.95242802837976
H         1.53338552597548   12.94153376081968    0.63361484752358
C         0.75672234417966    7.63594915497038    4.81398336448421
H        -0.14997099716278    7.78994686070694    5.39511731753255
H         1.22475121958831    6.68902597074994    5.08508753115396
H         0.50051490036377    7.63487388946495    3.75598390913468
C         2.20965877884496    8.75439414991105    6.98807892838983
H         2.71471140668719    9.61428944781901    7.42756607964081
H         2.81900292714639    7.85995179263644    7.12284075315886
H         1.24832617462420    8.62089726996854    7.48039307873236
C         3.48378850186217    8.38730873005440    4.48504314129626
C         4.69704004052686    8.70217326476534    5.09082240149920
H         4.70902920412655    9.22114604596571    6.03990721847165
C         5.89459352467165    8.34015228092725    4.49956594642474
H         6.82726861365956    8.57954246498957    4.98830081404255
C         5.89655087186969    7.66927889464475    3.28855725912259
H         6.83002370560644    7.38386850704429    2.82884409552863
C         4.69467986636036    7.35491818853779    2.67511995568169
H         4.69028272623489    6.82294508113552    1.73570136460121
C         3.49739668235660    7.71484803269967    3.26588397192268
H         2.56622668601535    7.46297268476313    2.77937054459936

