101
CSD_code = NAMSAY | q = 0 | S = 0 | Stoichiometry = C51H40F3NO3P2Ru | MND = 6
Ru        8.60734683576388    8.65204877321911    5.27151453929305
P        10.09405657382943    9.77250614623434    3.90494092994388
P         7.05300468359055    7.53610961347939    6.66264403419139
F         5.43730538995609    6.92750502972772    2.03324861868208
F         7.07790464156284    5.63695791945602    1.50025061990729
F         5.58220347468662    4.96016933005510    2.89826963060454
O        10.83320124365601    6.67155140271886    5.33614271375017
O         7.45215405256188    7.82361171030599    3.52144621410222
O         7.44616811483736    5.89466640322490    4.63399146431782
N         7.42217928277596   10.31611334061997    5.24432647923187
C         9.89323298864467    7.33643571585991    5.33276462587870
C         9.36030274985357    9.62520584367124    6.88365888622942
C        10.41535047271725    9.26305763406063    7.71177675644641
H        10.94741542271887    8.33785274429358    7.52450264460268
C        10.82412713890028   10.05088472826929    8.77883610959315
C        10.14326627418566   11.23731692398575    9.03997775770696
H        10.44630125037636   11.85537823758380    9.87323223113862
C         9.08982089101019   11.62735680038955    8.24487719385758
H         8.57288375944720   12.54899668235623    8.46932156238219
C         8.69818413367541   10.83824480075112    7.16163783990104
C         7.64479166406732   11.20828695830683    6.23390969169148
C         6.92551757429055   12.40602847081131    6.28314181878839
H         7.10026778544168   13.10062867318170    7.08831777165708
C         6.00104763149183   12.69796513686973    5.30271029079567
H         5.44145890523025   13.62092762185399    5.33103045570281
C         5.81277782207985   11.78563559140760    4.27265297823811
H         5.11449943719919   11.97479247695966    3.47334845157407
C         6.54079212038917   10.61169132838269    4.29172891659980
H         6.41155002297809    9.87486278324143    3.50828373322302
C        11.99385029399338    9.64175596575527    9.61959732485034
H        12.04554873290528    8.55915511243732    9.70942252511277
H        11.93462409046466   10.07967885012137   10.61348805853597
H        12.91768365490755    9.98335005520453    9.15110354008786
C         7.15710389518245    6.62809484266052    3.69835457010890
C         6.30203249237702    6.02455097544551    2.53056849465412
C         5.40231407924090    7.08103587679008    6.00638632586642
C         4.88513950326119    5.79743887644275    6.15670054210658
H         5.44385838896569    5.04996574568874    6.69745684140739
C         3.67205449985214    5.46136637908944    5.58453772237272
H         3.28811019327599    4.45917739164846    5.70374496071706
C         2.96176312688787    6.39140858462565    4.84434722178693
H         2.02117079635249    6.12067480138467    4.38844973760589
C         3.47626860850652    7.66435087433858    4.67340159857008
H         2.94195008235589    8.39286868264358    4.08066086624324
C         4.68927278847483    8.00353047061787    5.24582192818944
H         5.08983871210788    8.99325008944471    5.08003648422081
C         7.45354129817739    6.07881370975020    7.68333375779190
C         8.49801643865750    5.22448773655248    7.36527557634603
H         9.07786810345694    5.41001083311380    6.47758522429764
C         8.76791355171351    4.12355608374113    8.16125352580628
H         9.58404313404945    3.46444459150554    7.90427358826444
C         7.99332811726042    3.86493998534951    9.27814178955253
H         8.20387642511017    3.00656551866470    9.89932825139496
C         6.93716169225277    4.70615732398444    9.59353779954389
H         6.32111518125403    4.50207263857114   10.45748914808466
C         6.66626962888367    5.80567361784429    8.80262498601281
H         5.83751868221594    6.45589645906321    9.04958817558545
C         6.61292645516153    8.68455350146367    8.03201702094579
C         7.49451676376319    8.75079951987202    9.11047925732448
H         8.34101507216862    8.07885593954540    9.14237936009439
C         7.29884300631359    9.66258653728461   10.12755425713083
H         7.99101053813953    9.69934306151640   10.95570052111646
C         6.22219974321469   10.53446100406735   10.08085495141481
H         6.07113484305502   11.25431719611873   10.87192849162328
C         5.33942089857752   10.47441027726869    9.01836444843176
H         4.49287821103753   11.14535799235295    8.97743833088333
C         5.53210180814924    9.55572631310676    7.99947288645514
H         4.82022861337039    9.51526043553436    7.18784881143577
C        11.39012796604340   10.59707568608172    4.87484956184615
C        11.12390385534139   11.80730825000558    5.51173825773394
H        10.18085452001843   12.30906110616707    5.34096638909369
C        12.05137362030013   12.35791446164206    6.37557989801182
H        11.83929557726671   13.29817080044819    6.86293496275210
C        13.24364328323881   11.69927502574849    6.62677736467245
H        13.96615100653969   12.13164844106080    7.30346286043235
C        13.50094464281961   10.48060250485181    6.02124916277189
H        14.42221496080815    9.95633963049998    6.22980336932789
C        12.57652910183507    9.92569699840035    5.15551283619810
H        12.76815285604855    8.96525283441471    4.69697543064569
C        11.03179033193722    8.80918541372931    2.67295497935630
C        12.12889924021218    9.38102056209741    2.03206436036463
H        12.45668405949271   10.37247877434431    2.31525774330427
C        12.79469849613807    8.67920561290467    1.04602601293302
H        13.65030393401335    9.12101493139915    0.55623333455142
C        12.36294379583936    7.41280954563252    0.68074770613659
H        12.88587200559191    6.86787659283349   -0.09121275445196
C        11.25954689221898    6.85055085675622    1.29925676116185
H        10.91365484140218    5.86971106156861    1.00947991474389
C        10.59245969745873    7.54786013984596    2.29166599979611
H         9.72637790213648    7.11272910189466    2.77284820896673
C         9.46046900628400   11.01940058201307    2.72950706546872
C         9.93749007359992   12.31423771016416    2.57212919360919
H        10.74617196157372   12.68048783735478    3.18724547533110
C         9.38245969476441   13.13820225913796    1.60712263291060
H         9.75401254383315   14.14606662593232    1.49009336381949
C         8.36435407957186   12.67725467069057    0.79020914398495
H         7.93551368663961   13.32839889381859    0.04279585826587
C         7.90886155288703   11.37467839985784    0.92136929947897
H         7.13043434778213   11.00368624083088    0.27092858264288
C         8.45732597077383   10.54871259867667    1.88289737191035
H         8.12586001269181    9.52255317842463    1.98259578970592

