35
CSD_code = NAMSUP | q = 0 | S = 0 | Stoichiometry = C14H17N2ORh | MND = 6
Rh        6.86531227225298    3.72801090957708    4.78036203667161
N         8.14538671056965    2.47748168126784    5.61189832628892
H         8.70687051246589    2.59371838452597    6.45463534200011
N         6.72504258569236    2.14457504034741    3.43047819276751
O         9.14152304963108    0.43050089752270    5.39224222488755
C         6.13960783189659    5.22874066079451    3.48101000438979
H         6.21471215180702    4.90288005482031    2.44164460952826
C         5.07449344201259    4.75730698435999    4.24551211049700
H         4.37992768613731    4.05666661547997    3.78044250819695
C         4.47323827990735    5.54081359300403    5.39450406010571
H         4.58594410101008    6.60766704446703    5.19977623206401
H         3.40238982778318    5.33487176430538    5.44622563882736
C         5.11342887630909    5.16631111116414    6.74495455618107
H         4.55342846619661    4.33769604973538    7.18485664486011
H         5.04591354839228    6.00918678294851    7.44091977722684
C         6.55615360640707    4.73501343721089    6.61838349958924
H         6.88569836620054    4.08513932117807    7.42986104752965
C         7.52673998406264    5.41951734040984    5.89533823447668
H         8.57019261280615    5.24427756023873    6.15911135072567
C         7.26779839766873    6.73832083765689    5.19853971179107
H         8.17576137543818    7.34305801105482    5.22940213684480
H         6.49763714793260    7.28504044563626    5.74332258505917
C         6.85434364488925    6.53998649778750    3.72807521057463
H         6.21842447530383    7.37004496700081    3.40083935318394
H         7.75088246825695    6.55477943938662    3.10361475681774
C         8.36955622225690    1.30991783697003    5.02222031302048
C         7.53773644099488    1.13534722360367    3.77309331355326
C         7.63051617391661   -0.03550905353918    3.03312989574642
H         8.31182248116443   -0.79713888317209    3.37988925639303
C         6.85689389324795   -0.17932337615257    1.89683757591022
H         6.90558014762133   -1.07740126920377    1.29957893020973
C         6.01297935906460    0.86369353430650    1.54537112417618
H         5.38590163167868    0.80271752764435    0.66960326607698
C         5.98037955305021    1.99932653120206    2.33680894932989
H         5.32518267597446    2.81856449646040    2.07191722449879

