107
CSD_code = NAMXAD | q = 0 | S = 0 | Stoichiometry = C39H63CuN3P | MND = 2
Cu        7.42449301064393   14.63889294051531   10.42106303525853
P         9.31710049806764   12.88187994949544   12.27423833640319
N         6.29033726468337   17.26427015542165    9.98529682027437
N         5.32540395459616   15.80352203026714    8.74461577211426
N         8.61463157273819   13.45240841760127   11.04627366910862
C         6.28128485321672   15.94053165211899    9.69396258293844
C         5.36088037965399   17.93528791826168    9.23336172096531
H         5.21740809255680   18.99298944645687    9.31636277764246
C         4.75282477465685   17.01436224254478    8.45071244602614
H         3.97522881678542   17.11359509804102    7.72172687812071
C         7.15062773968246   17.85906431041048   10.94769341538313
C         8.46749549760361   18.15500510042144   10.59156185579294
C         9.29457153804099   18.70926810265584   11.55954160858824
H        10.32012206508120   18.93958113959317   11.31627890707814
C         8.82411847468969   18.96126988804845   12.83298090645263
H         9.48253776897714   19.38804874168065   13.57542671291229
C         7.51520951802390   18.66590784810790   13.16514245881224
H         7.16687509823698   18.85986230998045   14.16683551067534
C         6.65305920219124   18.11404716492057   12.22899876513016
C         8.99658163573706   17.88434177628892    9.20314269595099
H         8.18963706102169   17.48236854106158    8.58267520500730
C        10.10679420730395   16.83355048539176    9.25305454493892
H        10.94987113632021   17.18375465964640    9.84281306638009
H        10.45680966891864   16.60953199203397    8.24794082556040
H         9.72810260963152   15.91463749031165    9.69939178578772
C         9.48847159634444   19.17771963805321    8.54863903278927
H        10.33871902272000   19.58900920501658    9.08621409832321
H         8.69738498941214   19.92539663861268    8.53470631449901
H         9.79603747819540   18.98141829953451    7.52387366939805
C         5.23697328729720   17.73439455177896   12.59705877167749
H         4.63646818065765   17.67310405713864   11.68292736678149
C         5.25105909132510   16.34873296844832   13.24901512155298
H         5.69041909527007   15.61691225172560   12.57237864310693
H         4.23881383081708   16.03489133831695   13.49453530310431
H         5.84264516645236   16.36681445392347   14.16128944960928
C         4.56716826551256   18.75873916993832   13.51363863037800
H         4.99724110031460   18.73771073618099   14.51137388981945
H         3.50670347550453   18.53242488779873   13.60297801285805
H         4.67260069360466   19.76376592737726   13.10995344491598
C         4.97644086383214   14.57153341731838    8.12785610614237
C         4.02043519308808   13.75578506747534    8.73555279125432
C         3.69537616141400   12.55791026024153    8.11359550095572
H         2.96681831519621   11.90216055608985    8.56405705167991
C         4.30177536138894   12.18848664616424    6.92870634458200
H         4.03963136050559   11.25161839122518    6.45975633536496
C         5.25329183693388   13.00512741310728    6.34808421742170
H         5.73225093398841   12.69349685668791    5.43338306299028
C         5.60698493761178   14.21236760424951    6.93424570756980
C         6.69107265826918   15.07573888941617    6.33333852295222
H         6.65784104335001   16.06685275207560    6.79748888790760
C         8.05357985211137   14.45178775963572    6.64867524243219
H         8.13457822619135   13.46621699639254    6.19685310103014
H         8.18068764517047   14.34551478258965    7.72561177818843
H         8.85418392192558   15.07884941794608    6.26274857136170
C         6.51163183584721   15.27005784325153    4.82703443403018
H         6.67485096139966   14.34192381570692    4.28635279688852
H         7.22983341295740   16.00123376638513    4.46221549288943
H         5.50909595862336   15.62931826174892    4.60275353901678
C         3.38897527338990   14.13126795279315   10.05522524572199
H         3.67475357647161   15.15631653771274   10.31160704403158
C         3.92584290198472   13.20860526705379   11.15234514079708
H         3.65436968825503   12.17472399384313   10.95418821741876
H         3.52012627748693   13.49577627488906   12.11978443361833
H         5.01214639604182   13.27440446919068   11.19725890112618
C         1.86151820132277   14.07935873226227    9.98794503440247
H         1.49305642117008   14.69623283949517    9.17037230387401
H         1.43727879751799   14.45029520273232   10.91848334160495
H         1.50806141946711   13.06299008521071    9.83754660095738
C        10.08910574828379   14.22064927430293   13.47588193523661
C        10.59113589539920   13.77043221080669   14.84301633863369
H        11.30250073349225   12.95447195288940   14.76089764414198
H         9.77667621066153   13.45763827836008   15.49131074342990
H        11.09433914833185   14.60944264028810   15.32868375068709
C        11.24727532788553   14.83710041688235   12.69128582052997
H        11.53741672444098   15.79184909257304   13.13434965018813
H        10.93209185491650   15.01991374816934   11.66557165617100
H        12.12424543766719   14.19659555690243   12.69219184901129
C         9.04984716559512   15.33147723827850   13.63917055412872
H         8.31847944501836   15.11292293932237   14.41008425706653
H         8.52712701392218   15.48092716443979   12.69224090066790
H         9.53580688258095   16.27158856999635   13.90242656999827
C         8.13613922110193   11.76491028434332   13.35586900595148
C         7.23280138442693   12.72684532825825   14.12865000316949
H         6.87896201301298   13.51250135430433   13.46298301682361
H         7.74678400856011   13.17429142052540   14.97423882450417
H         6.36311983625528   12.19511563588105   14.51907379101645
C         7.23405007601036   11.02647941490681   12.36345420622203
H         7.65929370677806   10.08351477378920   12.03580703212744
H         7.07368969945151   11.65977890891748   11.48973100774287
H         6.26411411943866   10.81241196730541   12.81352075804878
C         8.76203504850671   10.78166010162432   14.33867133988287
H         7.96710617908943   10.30675953620435   14.91780844963091
H         9.43180264587260   11.27964077401571   15.03381532408996
H         9.31207947408748    9.99390211599274   13.83089587864870
C        10.76098941419747   11.76310773053971   11.64084628608214
C        11.41172854012031   12.50610820429323   10.47241536297095
H        12.13747217040425   13.24532403678899   10.79456928945888
H        10.63108122834545   13.00278589089735    9.89824838714526
H        11.92665709478491   11.80142795076288    9.81903357502805
C        11.81881594148251   11.31783694328389   12.64432858697053
H        11.37328012143678   10.84503924143309   13.51481749472875
H        12.43759740318497   12.14730030017849   12.97707036079054
H        12.47659393367886   10.58976466234424   12.16531967736059
C        10.09260841297117   10.52765557409718   11.03591264707852
H        10.80266871160001    9.98988935253305   10.40533734559742
H         9.25273451263570   10.83798486659800   10.41819127775016
H         9.74764636919285    9.83638916895199   11.79873960076706

