55
CSD_code = NANFEQ | q = 0 | S = 0 | Stoichiometry = C16H28N2O8Pd | MND = 4
Pd        2.96531124405024    5.08322810392655    6.62740557572929
N         3.96322696099995    3.41441823691954    5.74484353359483
O         1.28573656538958    4.03815154200829    6.22244750583082
O         0.62536566463329    2.23789635361134    5.12076108775851
O         3.83808037202460    5.74765009545876    4.15529732864323
O         5.98010938814117    5.54661847720257    3.58256549621286
H         5.83979356180317    6.40422197904405    3.14904256677983
C         1.46912289649346    3.04978530761865    5.44819243031019
C         2.90547093646057    2.91968206193924    4.84193544226222
H         3.07900587267926    1.88498223886942    4.52482146366624
H         2.88476066243638    3.54597342046957    3.94471797069953
C         5.11888419411221    3.85143975914807    4.95961887735756
H         5.41674931817591    3.09870234119827    4.21605398533693
H         5.96834066316877    4.04911083929452    5.61730480872252
C         4.88062154397336    5.14618959834422    4.21259697550237
C         4.37229050817409    2.40611335330250    6.78257368570176
C         3.13648286882751    1.75206700130115    7.40815579601755
H         3.45426451719048    1.10124984818854    8.21975271874928
H         2.57498686126487    1.15231267766139    6.69746394674272
H         2.47924670976001    2.51382791247542    7.82584926806250
C         5.26647247188618    1.30656171922636    6.18994618177475
H         6.25839843896479    1.67519013934250    5.94227678655319
H         4.82112338577053    0.86392319986383    5.30201399021691
H         5.38315012689292    0.51522753928608    6.92555581840180
C         5.11388902915162    3.12616548591701    7.91658987175933
H         4.44734182963809    3.85697037148741    8.38831113810221
H         6.00910855128807    3.64279635152961    7.57854244165738
H         5.41364250150841    2.39930226701673    8.66793002982293
N         1.96739261647471    6.75126228384935    7.51146555629623
O         4.64500455667750    6.12753628138684    7.03384960470658
O         5.30532786500725    7.92763227712779    8.13574977796615
O         2.09253041517371    4.41807705894008    9.10119197271518
O        -0.04955026878076    4.61907554311922    9.67377271534013
H         0.09071970055236    3.76138739268785   10.10714658371924
C         4.46150267433090    7.11599201943574    7.80795643899993
C         3.02519356753664    7.24596196118710    8.41433883186294
H         2.85165132494842    8.28063970998262    8.73152984238834
H         3.04592671226936    6.61960410130356    9.31151927357109
C         0.81173257752396    6.31422813492740    8.29669902473790
H         0.51384899512599    7.06699963021966    9.04020803829850
H        -0.03771157907566    6.11648641666409    7.63900998245191
C         1.05004475670451    5.01966753045549    9.04402337926356
C         1.55839574270823    7.75960611841723    6.47376789658418
C         2.79419190149268    8.41372382826812    5.84822290311186
H         2.47643482096991    9.06456061084237    5.03662853083601
H         3.35566943267358    9.01345759522734    6.55894538166742
H         3.45145433691289    7.65199225115806    5.43052842274553
C         0.66418952022464    8.85913466133695    7.06639058288734
H        -0.32773887735967    8.49047769811381    7.31400556475243
H         1.10949341114136    9.30176159662262    7.95435263126694
H         0.54752838680115    9.65048071039087    6.33078972036760
C         0.81689532376245    7.03948245156743    5.33974739357031
H         1.48354236424997    6.30864008552185    4.86821598319408
H        -0.07834953734802    6.52286312096522    5.67773619337013
H         0.51720161444171    7.76631070862741    4.58834105136202

