49
CSD_code = NANFUF | q = 0 | S = 0 | Stoichiometry = C20H22N2O3PdS | MND = 4
Pd       12.36860004054696    6.95289054723460   13.03927950808393
S        13.41452387295309    5.49232741651186   14.45196596821659
O        11.40205479454581    8.90965749754931    9.50340670946421
O        11.71361512404698    8.11970821796180   14.64326231619701
O        10.09547366524291    6.68260510125043   14.22029864074871
N        11.68723338421728    8.25327469703254   11.60999723242404
N        12.91883983287888    5.71159034805474   11.55611906777068
C        12.07164505337945    5.48772676820021   10.51639040127755
C        11.85813598190312    4.19407363646116    9.99314206848401
H        12.34364987010557    3.35669698134855   10.47400266290368
C        11.03274166041857    3.97664049244439    8.91782929282118
H        10.88478385965065    2.96867350819870    8.55799691709859
C        10.38148354770128    5.03705191513567    8.29265366692923
H         9.74470524187048    4.86015973792943    7.44028285277977
C        10.54511990897343    6.30899867575590    8.79107037229563
H        10.03494351033772    7.14693797095584    8.34079920072102
C        11.35407460184592    6.54993510890772    9.90277324065054
C        14.73130377453710    4.22908965191090   10.84251276947307
H        14.46974984723495    4.37403426196733    9.80478749948184
C        13.96608369850107    4.87296401916411   11.83195803675472
C        15.47169710973358    3.92249837031187   13.50190313245709
H        15.74551315959068    3.82242677397888   14.54145484730240
C        14.37785839775604    4.69557626737623   13.16452069945103
C        12.03375012216422    4.29032275647754   14.52753551425112
H        12.43661039110986    3.32329743544598   14.81839289737233
H        11.53129959791714    4.23686149902717   13.55947930656248
H        11.33596773476934    4.65559332680878   15.27661114068086
C        11.48414326908286    7.90289845670705   10.39080326388662
C        11.63987450066210   10.12324005853099   10.20820139857877
H        10.75736568180340   10.76156038837540   10.10890972884611
H        12.49943827655587   10.62395005054355    9.75434724606256
C        11.89573912133575    9.69644843064103   11.67743460396603
C        10.91224293191219   10.35918532378147   12.63949751509921
H        11.12221333899009   10.02836862877036   13.65314843471489
H         9.89090739080252   10.08257676242193   12.38537672732338
H        11.01531318728703   11.44057312955364   12.58668801280350
C        13.34254517547988    9.92685816212446   12.13145987100204
H        13.49276415769064    9.41754744557365   13.09444858059529
H        13.54005986505187   10.98883012229746   12.25615865154582
H        14.03889754060669    9.51401907564600   11.40010229763481
C        10.56519842645466    7.62425043266205   14.87170174909798
C         9.76755599993314    8.25888275951886   16.00152817651562
H         9.11949058268025    7.51595246060442   16.45673372193170
H         9.14882582535643    9.05190129802854   15.58589748100801
H        10.43988255856772    8.68687774868171   16.73968249574796
C        15.82324243162205    3.46081542988885   11.18214538592802
H        16.39943726974998    2.98972989117969   10.39926540591090
C        16.20046845088039    3.29322115128422   12.50846386813226
H        17.05703623356170    2.68899980965965   12.76177942110891

