49
CSD_code = NANFAM | q = 0 | S = 0 | Stoichiometry = C14H24N2O8Pd | MND = 4
Pd        3.29876028536215    6.89181438246008    4.94037670072121
N         3.54404685603365    8.11739889440664    6.64064036746487
O         2.65657933579584    8.57052179548066    4.03590449730470
O         2.46238856069611   10.73764794264268    4.42949854437751
O         1.11580706529513    6.72551028524293    6.59551942557079
O         1.23366254487697    6.28669533191487    8.77619448244015
H         0.39261876503718    5.82435909683930    8.62710375317118
C         2.61873616307330    9.58911457588828    4.79443283734508
C         2.72819787444081    9.30698176649399    6.33208881833621
H         3.09186039228542   10.20454689333804    6.84205149047493
H         1.69777741753266    9.13228002171083    6.65387972411102
C         3.06054480909172    7.43998095144361    7.84331636629918
H         2.97598948686205    8.12139684912360    8.70032045494434
H         3.75108232145295    6.62726507380868    8.09856529988754
C         1.71007565075307    6.78929179946571    7.64104945297527
C         4.99631489118717    8.42060899768302    6.78573054976334
H         5.50171098472753    7.44250738587702    6.79679073275063
C         5.51881470984423    9.21299113199293    5.58957342651364
H         5.27527848976572    8.69869160038400    4.65954604712817
H         6.60152320257435    9.28918220654471    5.65881713215883
H         5.10395588222370   10.21775910486873    5.55891888202921
C         5.34086917753046    9.16679199823569    8.08092463426628
H         4.75747903585516   10.07858645509477    8.18362565976010
H         6.38971700052972    9.44901050714837    8.04917262822986
H         5.19372386396171    8.55068231461783    8.96379961595460
N         3.05256561284680    5.66635256502010    3.24018496034648
O         3.94046107685242    5.21298862847394    5.84491562320979
O         4.13422998903543    3.04584724381931    5.45116833111223
O         5.48065377324558    7.05828113945126    3.28513942394809
O         5.36247876999603    7.49754659148305    1.10458075533564
H         6.20342401152613    7.96006672072777    1.25366769696526
C         3.97766118945729    4.19438292067661    5.08637875998179
C         3.86849138500468    4.47682186727455    3.54873146202034
H         3.50497592109925    3.57929568403840    3.03861092246044
H         4.89892886826510    4.65167014560504    3.22707001985550
C         3.53592371680168    6.34372280512169    2.03742507662933
H         3.62056796359761    5.66223370454130    1.18048333634293
H         2.84528060488173    7.15633052561777    1.78211829519652
C         4.88632868531952    6.99454935608735    2.23964708839517
C         1.60029797668721    5.36302983555885    3.09521934188216
H         1.09483122656972    6.34110152699103    3.08436687085931
C         1.07798107492559    4.57040084843659    4.29129617444772
H         1.32164758325491    5.08449055627281    5.22140156639801
H        -0.00473694520111    4.49421945758044    4.22219419487808
H         1.49283584477450    3.56562433114250    4.32168834411947
C         1.25567514560316    4.61698083486865    1.79996244718413
H         1.83924054544974    3.70532565807072    1.69700586848208
H         0.20689125930392    4.33454042719005    1.83182603852729
H         1.40254995391442    5.23327926324366    0.91717587744432

