43
CSD_code = NANGEQ | q = 0 | S = 0 | Stoichiometry = C18H19ClN2O2Pd | MND = 4
Pd       -2.52725832939387    4.07564386612358  -10.16051649501265
Cl       -4.61753514100618    3.51569470354568  -10.82487633811783
O        -0.39570010225884    0.94282326739481   -8.58990214611162
O        -2.90222470688128    6.01321725012500  -10.94012319411500
N        -1.89873821279087    2.33285638965426   -9.46546142584891
N        -0.80614905427738    4.93465447911139   -9.57993929329509
C        -0.13217829754321    4.58675005191113   -8.46402669830863
C         0.55260693179510    5.52532431863449   -7.65794180211591
H         0.48174318594763    6.57263016491129   -7.91227705529762
C         1.26084197555102    5.14009436554203   -6.54960599055731
H         1.76058495039705    5.88875513279807   -5.95194715918642
C         1.33682950509560    3.79657391661749   -6.18105917607414
H         1.90977825218343    3.50047977956544   -5.31663839000132
C         0.64860519452871    2.86227914819860   -6.91533000657758
H         0.66161573430331    1.82149681979062   -6.63127373735751
C        -0.11004115648467    3.23030974794185   -8.03357820333495
C        -0.58379362300137    6.09966590969123  -10.28057464622519
C         0.67372698360511    6.70517102538464  -10.42687229220529
H         1.53302919268703    6.24499049390328   -9.96316934030538
C         0.82221247796054    7.85166239574108  -11.17920558329720
H         1.80140077237123    8.29677446833031  -11.27521568596305
C        -0.26280259448668    8.42814589337949  -11.82067724933514
H        -0.13908844276891    9.32438655628561  -12.40745888235575
C        -1.50773646753530    7.82782344580408  -11.72914732883625
H        -2.35432648528805    8.23989946672879  -12.25807794633931
C        -1.66349879370111    6.67839368969031  -10.97779991477993
C        -3.93049811155191    6.74066932547786  -10.27025421811819
H        -4.08499161005496    7.71015639961121  -10.75269706554851
H        -3.68154529458850    6.89720770301797   -9.21160625329467
H        -4.84089327666807    6.14293477821098  -10.35488373127766
C        -0.83967870686225    2.20192222414724   -8.72996342921249
C        -1.20374897254958    0.09674994178701   -9.39651859602801
H        -1.63075058599272   -0.68422823384372   -8.76220387293954
H        -0.56719345654077   -0.36631412567629  -10.15653349961416
C        -2.28533950183532    1.02395628354134  -10.00419072022079
C        -2.20686118307130    1.08900883004891  -11.53174169508606
H        -2.91942719271208    1.83385238715155  -11.89845451184959
H        -2.45609847504504    0.12298402436018  -11.96352296662463
H        -1.20118511784047    1.37465105443388  -11.84546883636365
C        -3.68031952248006    0.62253971333186   -9.52742148256988
H        -4.41776397007640    1.32691173790118   -9.90401771129013
H        -3.72003411371476    0.62335640753730   -8.43984644804784
H        -3.91887465742341   -0.37285519784335   -9.89317898095991

