43
CSD_code = NANMUK | q = 1 | S = 0 | Stoichiometry = C12H26CuN4(1+) | MND = 4
Cu        2.12666285012353   10.78534215294630    4.64105720450466
N         1.98879277090040   10.71508000350110    2.50084535125162
C         0.66538430024158   10.16864579374299    2.18382798767341
C        -0.42656748691045   10.59997319349546    3.17127172054320
N         0.02876426528075   10.48996953470773    4.56000096850157
C        -0.66207120941735   11.41655681430998    5.46524389248035
C        -0.46954693048889   12.90874089395028    5.19027895937991
N         1.94024859334921   12.87303329189217    4.36040323622848
C         0.96090556960126   13.43986407750316    5.29599401283763
C         1.61886470860292   13.15381180869991    2.95807399002076
C         2.19841042816464   12.08539328738735    2.02230832979727
C         3.02690584631778    9.83960659108120    1.96020247267674
C        -0.17149203956031    9.12438191320995    5.04218592466261
C         3.26263126293283   13.40760060861196    4.68323667206653
N         3.29898276465740    9.89224882451510    5.75904830333514
C         3.97577280677840    9.25693195524485    6.43790228904102
C         4.81768278834651    8.47972624937816    7.27904431035604
H         0.74721667785798    9.08076780352384    2.21342473372263
H         0.35520303899704   10.44917912144028    1.16815396134542
H        -0.71584223161759   11.62637812292134    2.96678351786053
H        -1.31361728960176    9.97496685552201    3.00191703607625
H        -0.29259451715729   11.20412530723716    6.47169413742691
H        -1.74318715201565   11.20970124041978    5.45373956014978
H        -0.91739183007645   13.18803793661956    4.23679079606546
H        -1.04647484553397   13.43533570569254    5.95393384039190
H         0.92263059853303   14.53332819450161    5.17533493760921
H         1.33068534846619   13.22820469128809    6.30245646189732
H         2.01630243676845   14.13207271668354    2.65621112719703
H         0.54068051476500   13.19636165208141    2.83651514794646
H         1.77189888724552   12.22317181242071    1.01952372589604
H         3.27572052968239   12.24174363291536    1.94528340693115
H         2.98411215108928    9.78307029895043    0.86637926380890
H         2.91073351906280    8.83670541788134    2.36620430825734
H         4.00805526909968   10.20839850879847    2.25247011843974
H        -1.23574476047352    8.85839025813019    5.06365655272667
H         0.23109579745379    9.02535017408840    6.04833373506940
H         0.34981128821102    8.42445862929397    4.39421935034820
H         3.28612906664557   14.50079179126709    4.59278671043398
H         4.00505187121801   12.98611512860384    4.01050953356501
H         3.53156086348155   13.13789011514019    5.70252395557221
H         5.83010884966706    8.46497177305718    6.87485484540931
H         4.44052355779204    7.45841542210801    7.33695065688703
H         4.83890107152226    8.91076069523496    8.28022295361203

