56
CSD_code = NANNIC | q = 1 | S = 0 | Stoichiometry = C26H24AgN3OP(1+) | MND = 3
C        -2.49539340633746    5.08965786609386    2.82263098944024
H        -2.57954598692776    4.74047984782855    3.84412477767493
C        -3.35218031338717    4.61956575705460    1.84258383029958
H        -4.11727951891473    3.90003168714765    2.08310172551834
C        -3.18610186210193    5.09096622095599    0.54827482366491
H        -3.81637992600274    4.73561619517142   -0.25262277052337
C        -2.19586224365772    6.02039806957113    0.29733468273972
H        -2.02991951750752    6.37678718589884   -0.70418019202231
C        -1.39154073564568    6.46787832168896    1.34886797583142
C        -0.34030341353907    7.45158990317128    1.17812189481327
C        -0.01522600239374    8.32379250099719    0.13065482173961
C        -0.55627846679590    8.65208449731475   -1.12692185156867
H        -1.46862685602219    8.18395998353079   -1.45391237899522
C         0.07283895838313    9.57290016557089   -1.91130394287561
H        -0.33112189604409    9.83718920236861   -2.87487476857268
C         1.27284821633021   10.18084317064845   -1.47262227054547
H         1.78725326237077   10.87767170103793   -2.11274798164157
C         1.77565276802449    9.89027310714709   -0.24795590382852
H         2.68581897415109   10.31762489391589    0.13650409427143
C         1.41718592683977    8.57321535986461    1.81089220361950
C         2.48485701718284    9.02918045593095    2.69039676555032
C         3.20353438181019    8.08584806501621    3.42627522681603
H         3.01383832274261    7.03303046457016    3.24741272633338
C         4.17640515308992    8.47761955372471    4.32525607404044
H         4.73895800316132    7.73715340977637    4.87147681205991
C         4.43865152337372    9.82585746495108    4.50985446879002
H         5.19922914148336   10.14178947995349    5.20643902824462
C         3.72307019694995   10.77508128503783    3.80463865498313
H         3.91617157534026   11.82765765677937    3.96011472317814
C         2.74056978096020   10.39291633450018    2.89952761657804
C         2.13035320097680    6.80162154730793    7.30422623140614
H         2.11434581614246    6.55654302322752    8.36599652543554
H         2.03335035850997    7.87878640617475    7.17653371709448
H         3.07567401080569    6.47837637477566    6.87007420822269
C         1.05829066653853    4.21514602241454    6.90436145657915
H         1.20178459448010    4.12875793658320    7.98104465301452
H         1.95033183893407    3.85628609736120    6.39174686870817
H         0.20812191879783    3.60605207523032    6.60074616993019
C        -0.69872758610336    6.40927780069994    7.42704957848345
C        -0.77546445277391    6.17799619369079    8.79670754787584
H         0.04882572570152    5.71698022233654    9.32156852475263
C        -1.91330244481271    6.53738667971849    9.49514067674426
H        -1.97030792705357    6.35519123652671   10.55746669697128
C        -2.97934576313545    7.12944146555825    8.83618405060534
H        -3.86512420416908    7.40732107918497    9.38605751262277
C        -2.90864727555051    7.36438149877148    7.47266098727952
H        -3.73769775323730    7.82624579863777    6.95848489133564
C        -1.77205544960449    7.00419144326593    6.77248569039757
H        -1.70399239281519    7.18326818956841    5.69711614965683
Ag        0.27345650481065    6.53975917679888    4.11439222583482
N        -1.54141111281168    5.98250311831342    2.59394570188795
N         0.55773961546214    7.64196667681796    2.17886228045145
N         1.11903703583506    9.01075800393699    0.55812162767568
O         1.99198886899431   11.30554571974971    2.22670340885575
H         2.22777349500336   12.19967636998833    2.50522160590762
P         0.75687965419034    5.95888003607366    6.43195915663960

