52
CSD_code = NANNEV | q = 1 | S = 0 | Stoichiometry = C24H22MnN2O3(1+) | MND = 5
Mn        0.78202046135032    2.60205330848277    5.25625808523076
O         1.81474634706500    1.36772769081389    5.64422071250563
O         1.72826129893647    3.99193158335219    4.69089872432459
O        -0.35812444644519    2.81995452535664    3.38422834960064
N        -0.64694348348982    1.28560182480660    5.97799854937106
N        -0.43412276244412    3.85854983462623    6.07745374428042
C         1.92765415354890    0.09854057520472    5.96011616854011
C         3.16354975162098   -0.55530962094326    5.95179707312350
C         3.24139693051409   -1.89303710730922    6.28273236158005
C         2.09822161047128   -2.60505995168088    6.63623614013187
C         0.87138258634215   -1.97777628589077    6.65840856776919
C         0.75448834231883   -0.62519234619006    6.31644975011430
C        -0.50248255283905    0.05730081394995    6.36236623266170
C        -1.86379464926445    1.95815921867119    6.14924194919871
C        -3.11948972148465    1.36692989287161    6.23718194554110
C        -4.24330346996989    2.16013033168876    6.39493928269330
C        -4.12296542605786    3.53889069640013    6.46544906298532
C        -2.88045952184094    4.14397010319875    6.37260523984384
C        -1.73876250682807    3.36212498288373    6.22470535179613
C        -0.12922438816965    5.05618065009340    6.51734376906889
C         1.07685653256985    5.71980727712708    6.19083562194819
C         1.37280762624730    6.98804434074652    6.73082596163979
C         2.51765014028419    7.65410895551476    6.38300244980841
C         3.40615935705132    7.08175137758159    5.46505312804020
C         3.14419947877623    5.85871374022065    4.90100511397684
C         1.98757520267115    5.13395403347341    5.25259160555093
C         0.32207390116597    2.18166790318653    2.28951806291361
C        -0.39943188841719    2.66037322775711    1.03646330189054
C        -0.70127896808786    4.11038401257480    1.40729671112068
C        -1.02331796797603    4.00323057508023    2.89799454130906
H         4.04440917829509    0.00899635484295    5.68408017422071
H         4.19974412730468   -2.38846271184431    6.27107012810342
H         2.17576923088001   -3.64799738026481    6.89884050388419
H        -0.01643576978345   -2.52509288964336    6.93776908953438
H        -1.34179565396766   -0.49310229010749    6.78695668358024
H        -3.23179484090148    0.29800472195454    6.14414772763567
H        -5.21734510320198    1.70052023158911    6.44900569852057
H        -5.00379932397179    4.15082091528513    6.57940986044770
H        -2.81131770751676    5.22044723150836    6.38750622308849
H        -0.83101917798386    5.58670582178574    7.15726048859589
H         0.67702184681371    7.42363953070011    7.43249133127645
H         2.73767032198107    8.61927580824040    6.81011333422560
H         4.30718027534003    7.61104903803428    5.19556273081988
H         3.82480193283472    5.41117833454130    4.19261347452296
H         0.26006456385940    1.10253395883032    2.45194168593384
H         1.37439026511155    2.49709751462740    2.28025996746102
H        -1.32395013526652    2.10110848089086    0.89297323720748
H         0.21486023276803    2.56891817084174    0.14527031261251
H         0.18143761806241    4.73084804754837    1.25264756014255
H        -1.52881998756770    4.52964881699958    0.84156144150348
H        -0.67636957934108    4.87471567216845    3.46316909515910
H        -2.09684428137205    3.86294045782230    3.07373169296345

