55
CSD_code = NANSUT | q = 0 | S = 0 | Stoichiometry = C23H26NO2PPtS | MND = 4
Pt        2.48152730108963   20.30146988870648   14.94327859556122
H         1.40378239113044   21.35952831990094   14.98657077242344
S         1.10823781739038   19.01171015222724   16.26205855827670
P         3.82037048907653   21.50612796862351   13.52349957883828
N         3.88339606686619   18.62060616559867   15.04731171031186
H         3.79490407344592   18.06788555247967   14.18830748967477
H         4.86222595771683   18.90570200738813   15.09383679186703
O         4.79756234594763   16.05119101339442   14.98725980679121
C         2.06502000102335   17.45195543236023   16.17232197769701
H         1.78831137630745   16.86034095097419   17.04532538301635
H         1.78204358960516   16.90767980238083   15.26724433669580
C         3.56589652011714   17.73957543730446   16.17205197608428
H         3.83735808190071   18.22451665225944   17.11605683286753
O         4.31293308538582   15.72948631187631   17.16370858354972
C         4.30686098756606   16.41551391690030   16.02874227293931
C         4.87992789069560   14.41472756395494   17.13817162625378
H         5.19212269876553   14.22272934563943   18.16620786159953
H         5.75128419763698   14.41929119071488   16.47525874648127
C         3.86054208413356   13.38756684895333   16.66980319175606
H         4.29326122296674   12.39316171208659   16.72814838676984
H         3.57511829808478   13.58672967128549   15.63949957587369
H         2.97262265845753   13.42676761488156   17.29616386040545
C         4.23013708565680   23.26614049501649   13.75884306295063
C         3.32826834920025   24.03929993740240   14.48251799974095
H         2.45723983433350   23.55757598602236   14.90815324297650
C         3.55859591665641   25.39114690094756   14.66009429578227
H         2.85635688934003   25.98823764361034   15.22240525874853
C         4.69293478123784   25.97707482910609   14.12144582158874
H         4.87573118927782   27.03239448116516   14.26073085435006
C         5.59942413486476   25.20781972914628   13.41012129103894
H         6.48796373425969   25.66298499727643   12.99661821396172
C         5.37290006435558   23.85552699825954   13.22665711557216
H         6.09132576329618   23.25823493927998   12.68143305427338
C         5.45591175626035   20.76312400447997   13.21271116840196
C         6.43884623855398   20.93023171113534   14.18820470740207
H         6.23446940266929   21.57488310685321   15.03439574051903
C         7.65611086844109   20.28719763303599   14.07083441355434
H         8.41658634052312   20.42858637299078   14.82514393216849
C         7.89805283587954   19.45627946115904   12.98682181033471
H         8.84769279883319   18.95061122581915   12.89618798931061
C         6.91911927858515   19.27107994749262   12.02470971498375
H         7.10479259705481   18.61842927899876   11.18444482027429
C         5.69938124151509   19.91603377182779   12.13704485037770
H         4.93364689793556   19.76766450809535   11.38802807396701
C         3.05559126649156   21.49943523219406   11.86774786413090
C         1.93980432538710   20.68613062418434   11.69854989264005
H         1.55988360366769   20.13659620172231   12.56301302788123
C         1.31924646679312   20.60323193695440   10.46586009316905
H         0.45218588088126   19.97260886184439   10.33741496365418
C         1.81023354939774   21.33646672980138    9.39738887970349
H         1.32726232990853   21.27575777520479    8.43323570589276
C         2.91679821791095   22.15440437097764    9.56438676151691
H         3.29300864850566   22.72968893580166    8.73089690662500
C         3.54163774808354   22.23888701002215   10.79555922080741
H         4.40145082914428   22.88047084231171   10.92547133598651

