78
CSD_code = NANTEE | q = 0 | S = 0 | Stoichiometry = C38H19F12IrN6OS | MND = 6
C        -4.15981419908367    2.96964279840877    9.98683684173259
C        -5.05295441867042    4.00780655657684    9.69521816153131
C        -3.11997723585477    0.90438506721118    9.19517452444786
C        -2.20701102153865    0.33376371291163   13.74096192661132
C        -4.10653810555680    1.96234349910498    8.98816723765284
C        -1.76442682743631    3.97107193667101   11.56093223201136
C        -1.35638813679784    0.21179502319067   10.51239094498436
H        -0.70969449307631    0.41655288959897   11.35307929073784
C        -0.55783836123073    1.72475501441555   14.84797103322766
C        -3.10574708525739   -0.67026962861902   13.28563095010263
C        -0.66136059027311    4.30041210334593   10.76774416297497
C         0.46596354355913    2.35135724938342   15.64679969018432
C        -4.17549413666162   -0.37621748754961   12.37552952226342
C        -1.97043671246415   -1.12770530027531    8.64268875619889
H        -1.84189940401702   -1.99701483382290    8.01671072483059
C        -1.94701113463556    4.82878921136184   12.67961238197604
C        -5.79233678637694    3.08752104388981    7.75064141827653
C        -5.00568291472310    3.21298604269344   13.66513298520024
H        -5.56428541128173    2.38496046755858   13.25083353993002
C        -2.96264747627146   -0.20516069839193    8.36927128326704
H        -3.61698514489915   -0.34999277820420    7.52591054779633
C        -3.13731659099348    4.56734196595795   13.48490458667847
C        -5.02255795166630   -1.46042196514241   12.02074672045591
H        -5.82833097331435   -1.23663701782901   11.33735373770537
C        -0.32296559756595    3.55402569033448    9.49782543492649
C        -4.83627373344591   -2.72350078387445   12.50622376941078
H        -5.49998878698636   -3.51953821717334   12.20166137270593
C        -2.95560689834039   -1.98133738943047   13.77349362938692
H        -2.14210870627316   -2.18051768940060   14.45849200808883
C        -3.52634125727410    5.29020862508642   14.60818187650155
H        -2.92355115514549    6.11064922697199   14.96026559294798
C        -5.22913526653786    5.22235770581721   10.57893402441243
C         0.03059400187016    6.00628702759259   12.09856595066581
C        -1.13912433782170   -0.90618451889841    9.72972843080036
H        -0.33783693758034   -1.58479546622955    9.97162556130385
C         1.98741230493528    2.34154588823261   17.50746783513880
H         2.40214403327918    1.84537605154327   18.37199740692625
C        -1.04824881212659    5.84967685843564   12.95722741277909
H        -1.16238331605186    6.50734062560960   13.80388789536214
C         1.00498370806130    1.71592743846516   16.76473688141767
H         0.65056987585555    0.73400454689209   17.04564144270183
C         0.92762581542656    3.61975109318982   15.28481203204209
H         0.50864054719379    4.09681152562870   14.41301846649756
C        -3.79006358493215   -2.99638728455783   13.39396376649481
H        -3.64515965989297   -3.99510506529665   13.77421504576382
C        -5.44989329248554    3.89081025783229   14.78502410318429
H        -6.36980177200016    3.59681116278408   15.26306274262879
C        -4.69438477471679    4.94997948099352   15.26603773684856
H        -5.01245941446745    5.50297696384930   16.13632868549648
C        -6.72502496000489    3.22117466814930    6.57014864633117
C         1.07768541362816    7.05185224933139   12.39405394386823
C         2.44165066427288    3.59960716520152   17.14344749988858
H         3.21193342426284    4.08254018897051   17.72532700459594
C         1.91071812623671    4.23645481276565   16.03123619448015
H         2.26635640154275    5.21229482456966   15.73879253468873
F        -5.94737922702985    4.95572101933394   11.69188736250956
F        -4.06049820825716    5.72887611926172   11.01693460777679
F        -5.85888600856189    6.22023798018847    9.96602004063590
F        -6.91784588995247    2.03882403682284    5.95396937364245
F        -7.93292293381521    3.67478512503793    6.90816294697949
F        -6.24098719724751    4.05106367235867    5.63308219197221
F         1.93797511583182    7.25588702956696   11.40578054110136
F         0.52357798237651    8.24059932635764   12.69501428664954
F         1.80509162762836    6.71227240082375   13.48330359447501
F         0.51455583534286    4.21962376672852    8.70844836740638
F         0.26571991512381    2.36322807040787    9.75075206145276
F        -1.40513783146775    3.27019908057580    8.74831624150488
Ir       -3.06656365537291    2.40499931898929   11.60702974269657
O        -4.44110375351863    0.77862992874087   11.89646164491393
N        -2.32685671650920    1.08820763674366   10.27029225383970
N        -2.03795149319869    1.53754905666073   13.23131611955137
C        -4.92494207662095    2.01377664441687    7.86513354328303
H        -4.90287181938084    1.25558815450470    7.09963238984944
N        -1.13833568784025    2.29048454566771   13.84701608267826
N        -3.88314772174131    3.53931490933132   13.03267368368445
N        -5.83800002168748    4.06672702991372    8.63125824006684
N         0.20985035133310    5.26446531482273   11.02636437007062
S        -1.14823106981758    0.08617729691950   15.11878218419011

