105
CSD_code = NANTIF | q = 0 | S = 0 | Stoichiometry = C51H44Cl2NO2P4Re | MND = 6
Re        1.03858531474965    4.72477846355026    6.24210071527966
P         0.08566210750152    6.93358376054848    6.66183846553487
P        -1.07279228266507    9.48966514490998    5.68049431070143
P         1.80184299241454    2.86191695178013    4.84798997047393
P         2.59947334591458    1.82225907803132    2.16216370718302
Cl        2.38455643088438    6.10248360853380    4.86558660318808
Cl       -0.63236912474535    4.54767185826893    4.57160879202105
N         0.12232435606893    3.78042281123389    7.40224691316204
O         3.55262187626415    5.18821823872835    7.97539132842158
O        -0.43150852511596    3.17609595739244    8.23893053769081
C         2.59185687831507    4.96639397869797    7.39935814971606
C        -0.44994936772848    7.80898862836662    5.14850214026155
C        -1.41370926792690    6.97931603990396    7.68235044444058
C        -2.31422134516240    5.92403186691840    7.56962280816178
C        -3.50835740843484    5.95471472281510    8.26582607797852
C        -3.80881955567429    7.03935963580717    9.07345044776881
C        -2.91206336343091    8.08873524635186    9.19054448302548
C        -1.71387034346071    8.06343932846011    8.49988785679653
C         2.01223918576106    3.32691279344734    3.09619757469848
C         1.24654231720399    8.03484835061326    7.50076429266677
C         1.55670364817535    7.71061126355562    8.82068248199605
C         2.47648386982403    8.46521369630478    9.52058246823822
C         3.10363169729793    9.53688545166003    8.90188599691441
C         2.81409178052215    9.84555946323138    7.58390693221783
C         1.88940933493280    9.09528342786788    6.87739419634285
C        -0.36549592089301   10.46281035778093    4.29320403903092
C         0.38980040231965   11.58973286252871    4.59319811855018
C         0.95085928492664   12.34412864645006    3.57727285745466
C         0.75897678681939   11.97446340840499    2.25714400096773
C         0.00421263973694   10.85174149865879    1.95299398009375
C        -0.55801943538241   10.09667447870566    2.96451426951238
C        -2.80713219968325    9.41617352413484    5.09929821331938
C        -3.39147646079226   10.59290754897416    4.63368499049003
C        -4.72290617566867   10.61676110229354    4.26641563231526
C        -5.49536259730928    9.47194539202936    4.37872888628321
C        -4.92953867294364    8.30790058300348    4.86941969927336
C        -3.59582508745092    8.27900921162497    5.23578177833822
C         0.64998427214814    1.47221646172907    4.91405353078621
C        -0.11556010856538    1.04552449675156    3.83844504578274
C        -1.01836551171356    0.00991900815054    4.00755435357124
C        -1.16390205589830   -0.59516273722907    5.24420087457445
C        -0.40665988408775   -0.16499324727358    6.32368824519250
C         0.49378895429493    0.86896907031513    6.16205748919714
C         3.42927326553157    2.15254476291449    5.23469977314482
C         4.48411556418446    3.05151388238382    5.36913613118680
C         5.75743427192851    2.59221526335389    5.63990195114401
C         5.98248142005588    1.23319094700592    5.79060478370633
C         4.93502119420660    0.33750600738508    5.66104030277505
C         3.65819161349156    0.79078875020762    5.37880059976401
C         4.40877447890947    2.13414524747266    2.18725130399368
C         4.97849654523375    3.37620260973748    1.92559382782864
C         6.35047763748350    3.53198666370911    1.97422997718727
C         7.16688777044878    2.45178243215316    2.26994168821117
C         6.60811678803034    1.20785523197256    2.50428087057765
C         5.23452943937513    1.05069641689995    2.46203996363329
C         2.21890773801607    2.39089757695642    0.45996538714285
C         3.15617804971383    2.24254932068628   -0.55907812338761
C         2.83725138146939    2.58383416425322   -1.86018536587026
C         1.57367881602914    3.05982161963034   -2.16726373202820
C         0.62442688818990    3.17823313426541   -1.16648630072438
C         0.93973656936417    2.83610984503349    0.13534281412293
H        -1.21412145986904    7.20243204537286    4.65294065300204
H         0.41332703330317    7.90687876950097    4.48232698770516
H        -2.08029072261553    5.08657967938892    6.92408301193457
H        -4.20376443730319    5.13351918787430    8.17624119838838
H        -4.74267385106605    7.06613124061839    9.61526780125983
H        -3.14670835154518    8.93255544167143    9.82247515162415
H        -1.00767118964546    8.87526159612441    8.60352872656220
H         2.73049899345661    4.15161908044899    3.05186570938662
H         1.04771642994063    3.68008377521748    2.72082200537791
H         1.06768529339117    6.85873517191755    9.27991095620479
H         2.71237746772768    8.21622315978369   10.54454621671099
H         3.82667088588158   10.12534494155292    9.44722068123396
H         3.31506250419849   10.67013956892267    7.09794901795301
H         1.68830126146005    9.32991836176012    5.84132562671529
H         0.53368261675675   11.86899206085969    5.62872240359596
H         1.53730027942740   13.21973005095308    3.81550368475366
H         1.19650434335707   12.56094249873370    1.46251399236213
H        -0.14573064683716   10.56549896153856    0.92189519128227
H        -1.15248089307450    9.22487516566947    2.72732474332771
H        -2.79134424684107   11.48935122511545    4.55064869576690
H        -5.16051084480906   11.53134673071736    3.89287463965665
H        -6.53584106598675    9.48976592157876    4.08961797119474
H        -5.52821291682622    7.41420807969744    4.97021754777168
H        -3.17818361547662    7.36421050190448    5.62948581549048
H        -0.01672333548390    1.51791649859917    2.87101466981839
H        -1.61463277586245   -0.32082660825822    3.16984339747561
H        -1.87373433939520   -1.39930850094717    5.37065935876620
H        -0.52612917828136   -0.62894638677898    7.29136794715903
H         1.08640949584697    1.22549318740050    6.99721161486264
H         4.29816578822720    4.11241990431961    5.25906992135240
H         6.57374120579068    3.29235155390051    5.73656432368140
H         6.97669147880536    0.87286161759528    6.00975258985413
H         5.11226601056406   -0.72188715275571    5.77692812853386
H         2.84350145099003    0.08954261683641    5.26798093149895
H         4.35576120321151    4.22197332618568    1.66789089860863
H         6.78651761543836    4.50059295083056    1.77637784196580
H         8.23867730721352    2.58055064476043    2.30878008897415
H         7.24150330213151    0.36014965711536    2.72135438493977
H         4.78902937717205    0.08240031560736    2.64461196448859
H         4.14275237943371    1.86500155608827   -0.32891069390389
H         3.57950013378697    2.47671546696840   -2.63805304593897
H         1.32679635423865    3.32887018505275   -3.18355615816896
H        -0.36874071350256    3.53340730453995   -1.40091563737043
H         0.17663215965950    2.91989333604368    0.89693949197426

