108
CSD_code = NANVUV | q = 1 | S = 0 | Stoichiometry = C49H55NP2Rh(1+) | MND = 6
Rh        5.94745159640593    8.55975680198326    7.58709282509708
P         8.04189488750029    7.66793471554295    7.14258333299522
P         5.00022305282155    6.47592972530450    7.89376732709283
N         7.01972945296612    5.20659399869352    6.64993998023975
C         8.25294812470580    5.82119955867338    7.08404349857206
H         9.04132506371126    5.60124362734095    6.35999229760152
H         8.57539599190218    5.44450942876567    8.07198424246068
C         6.11825061163080    5.00573134482656    7.76937761082242
H         6.66472445299603    4.86637974808267    8.71616532412425
H         5.50278401462582    4.12096698311758    7.58890921896701
C         9.17259032358087    8.18927727163314    5.72595907817741
H         8.88646120902589    9.22170039652784    5.48621779533517
C        10.57138904242782    8.22563541998568    6.34315255449015
H        10.96141334725202    7.21897354475300    6.49878337234384
H        11.26192022699287    8.76213147863933    5.69173085720033
C        10.41672234631324    8.90417840956368    7.69538102145774
H        10.11356624194310    9.94290337143309    7.54845286283712
H        11.35243067761236    8.89584897388323    8.25493474731617
C         9.33429568005125    8.11434997513707    8.43373766185692
H         9.77410085775317    7.15525047679207    8.74489575837289
C         8.99381489635659    7.35624484012555    4.49117868530931
C         7.93342653401742    7.65240778181484    3.64142521131975
H         7.30001461533600    8.49357102143401    3.87989819892266
C         7.69472440885558    6.90723917683349    2.50256598721566
H         6.86480860332578    7.15618987067308    1.85791616870169
C         8.52612656511341    5.84563532600373    2.18447142128258
H         8.34488135199831    5.25869700748665    1.29766125731026
C         9.59859668623439    5.55290929864682    3.00727036357251
H        10.26394478888753    4.73971946370528    2.75885246224321
C         9.83276234574861    6.30018396191456    4.15057882307412
H        10.69508381870014    6.06013924231567    4.75447004238793
C         8.74784001798229    8.74709713007575    9.66447665357771
C         7.68286780236711    8.11041283314429   10.29880994857063
H         7.27896365520965    7.19038313609422    9.88305301787996
C         7.18409700530950    8.59419067280727   11.49478042880746
H         6.38364706434269    8.06807444058610   11.99002057983524
C         7.72164392319922    9.73894677911829   12.06196149207725
H         7.33533464740128   10.11410534125893   12.99741581308102
C         8.76121896339268   10.39267177333757   11.42543491632636
H         9.18715390852886   11.28432005566789   11.85988795072937
C         9.27607882204360    9.89621226717461   10.23932047425922
H        10.10758268251958   10.40598011243393    9.77868244456678
C         3.69942556545077    6.00425474905960    6.62032672739518
H         4.11028487503558    5.11764765316969    6.12214314361178
C         2.44757503248062    5.59521162562738    7.40528744855913
H         1.84742196702632    4.89326819974974    6.82607251955825
H         1.83408934694968    6.47103726547515    7.62828025294642
C         2.91080929753103    4.98229036231443    8.71653264541316
H         2.07501231204134    4.80496230674006    9.39473733556915
H         3.40033891856136    4.02591539296741    8.53359750240098
C         3.87767283749935    6.00273081818648    9.32556161084804
H         3.29434263863404    6.91084781977727    9.52970650355245
C         3.48047581744409    7.02531442916747    5.53815903001892
C         4.58892075698692    7.55481214263351    4.88245588573956
H         5.58427409353304    7.23627465356036    5.18900134127025
C         4.42278703868859    8.41191707123941    3.80826935427676
H         5.28055309637197    8.79434670480085    3.27574049451675
C         3.15328554083256    8.77574972316414    3.38866013109321
H         3.02847968434497    9.44487860510286    2.55085324358002
C         2.04904823506799    8.26745322463883    4.04614758968276
H         1.05471980549085    8.53958618724084    3.72617793112799
C         2.21134640792162    7.39051126295813    5.10573173117440
H         1.33075481358459    6.98263797383681    5.57554783294966
C         4.52188918095395    5.57437098039689   10.61040376253530
C         5.10987231304297    4.32276898142557   10.76760236046225
H         5.12057106546238    3.61969736986795    9.94917419399991
C         5.65710066756364    3.94332533030300   11.98045624339794
H         6.10818642002191    2.96751671144666   12.07995336374519
C         5.61310530290677    4.79922809864233   13.06718324263745
H         6.03351868886717    4.49872915364111   14.01405564030216
C         5.00385447606850    6.03429853725298   12.93443953520978
H         4.93707402258425    6.69865860389006   13.78322469777227
C         4.46628977045262    6.41581482234929   11.71746570073018
H         3.97328457580833    7.37523330251012   11.63393765919193
C         7.21775912477912    3.99368462223891    5.84999333063321
H         7.56516156229260    3.15409422369388    6.47245757513497
H         7.98453505306748    4.21526563813902    5.10364283103138
C         5.94191540143333    3.63128779844718    5.14005577629267
C         5.15529334042256    2.56542035751556    5.55904882970278
H         5.48954801543178    1.93526578927533    6.37250440212188
C         3.95231999554880    2.29064983430748    4.92930297510619
H         3.35145136688854    1.45728631404339    5.26093109957465
C         3.52376067132527    3.08147094509573    3.87697861927187
H         2.58525464418303    2.86840707958922    3.38875332141991
C         4.30927206259814    4.13766488177943    3.44404800698534
H         3.98393361676757    4.75114225419110    2.61772820204795
C         5.51256742726084    4.40846428633959    4.06985389735673
H         6.13013641860575    5.22633157475744    3.73215174764368
C         6.22043804037575   10.36245047541260    6.39018045339173
H         6.85098639238538   10.06970525863453    5.55059313755603
C         6.82248355475097   10.59370948714094    7.61097481154405
H         7.90135898926631   10.47545290205043    7.68301909204330
C         6.21848708337584   11.50345966137961    8.65275888883136
H         5.69405008419063   12.31301157520474    8.14123006075102
H         7.02089806240391   11.95088683446226    9.24039288481993
C         5.26296433867938   10.77084421697759    9.61297931088145
H         5.81215765199142   10.49108331492315   10.51183082739423
H         4.45761345559902   11.44618771766061    9.92090372212763
C         4.63969304489429    9.52893859087529    9.03084981021272
H         4.42454830931720    8.76733181071976    9.77938650407029
C         3.96440476711995    9.48469094637187    7.82533664554732
H         3.22742957847123    8.69718749829273    7.67512066495779
C         3.75387650536185   10.71108192611600    6.96971645082613
H         3.63524303619113   11.57437642765881    7.62758928888340
H         2.82598894583093   10.59554999576585    6.40846752890064
C         4.90024303534802   10.95607271996883    5.96967605058750
H         4.62091181782312   10.53130051757854    5.00578481619112
H         5.04011973172566   12.03232567691911    5.82253807246959

