77
CSD_code = NANVOP | q = 1 | S = 0 | Stoichiometry = C27H45NP2RhS(1+) | MND = 6
C         3.24093050752013    0.68863061029315    1.80078784600423
H         3.73329153196319   -0.26037111324902    2.02569403085459
H         3.00439215788580    0.70486397029627    0.71974432781316
C         3.64845320155720    3.06990421773617    1.88423680536966
H         2.89466774917448    3.07653978204604    1.08497681245639
H         4.46219465532943    3.74179500289732    1.59948912925401
C         0.39996144868224    0.99118809573362    1.42634806017348
H         0.95299515762894    1.19018866918744    0.50062749995766
C        -0.34023302261727   -0.34528170102163    1.28729309768855
H        -1.18108522059542   -0.37754776255651    1.98341745966023
H        -0.73891137396908   -0.46318348117673    0.27991920135349
C         0.64569820268534   -1.45597194490369    1.63157087216439
H         1.41753129510176   -1.52355057755899    0.86204691489689
H         0.14920219339034   -2.42430025137732    1.69692086038257
C         1.27453946033961   -1.07143891507211    2.97230066866805
H         0.49471187872425   -1.12967246680348    3.74116629135362
C        -0.52454168163824    2.17387227698561    1.69613834883009
H        -1.16460703558976    2.35900335357003    0.83544242601867
H         0.06111431804657    3.07671595070376    1.89085972193652
H        -1.16273465446041    1.97506308642951    2.55467484358657
C         2.43216216265650   -1.95836322059334    3.41503134342822
H         2.04943187300282   -2.91113453619188    3.77476386220114
H         2.99523549423721   -1.48991698936905    4.22169454460829
H         3.11303897301798   -2.17175563482387    2.59447177351541
C         2.95592928613902    5.46863727306655    3.42613073572167
H         2.30865115960202    5.83128495696307    4.23323118638186
C         4.39909874029497    5.85546102896438    3.76231283881618
H         5.04619128413939    5.68129397309329    2.90036044084645
H         4.46534678965715    6.91291648028948    4.01929439297085
C         4.83310350043275    4.96915714106171    4.92537893945632
H         4.28355979698337    5.25599708715901    5.82493531184892
H         5.89614350147356    5.08216688189484    5.13697415253140
C         4.50313003963162    3.52177545249526    4.54636001994914
H         5.28244695632310    3.12245656234140    3.89155217286288
C         2.44084457854372    6.02506950602579    2.10579809580142
H         2.39595645550503    7.11120141622269    2.15172056633439
H         1.43933381262350    5.65290994256275    1.89444807154076
H         3.09256551125748    5.75116331907440    1.27988072792367
C         4.36221374710458    2.57442265767018    5.73293355600375
H         5.33797969129813    2.35413526169012    6.15948036789462
H         3.91600662383662    1.63360412105861    5.39921768167100
H         3.74352657510316    3.00992417617727    6.51343616754353
C         5.48968443458666    1.47201820996185    1.61210807806879
H         6.13382577132769    2.32705568018969    1.84215942150522
H         5.46781017585664    1.35030722767158    0.51597274217366
C         6.06489164105474    0.23926361036199    2.22603032015369
C         6.64610762467607   -0.82678010695257    1.61465707816259
H         6.77720397618260   -0.90136753358400    0.54987477484101
C         7.07076759825820   -1.82249172082948    2.52528297367891
H         7.55488503894941   -2.73409660371126    2.22706790905637
C         6.79549103484513   -1.50200175588418    3.81248824617596
H         6.99956401442789   -2.06615617057003    4.70007518290272
C         0.66827814234888    0.91950542768170    5.96716053101812
H         1.19856463223397   -0.01267869185226    5.76325814990446
C        -0.45256746209546    1.20809980532005    5.21752542564293
H        -0.75060553919423    0.48801963807868    4.45791023236778
C        -1.56520402168262    2.12074581834031    5.67555706137277
H        -1.64479897675274    2.06803684022531    6.76116982057889
H        -2.51116221971146    1.76094392878991    5.26757072269647
C        -1.35617207276358    3.57546876436753    5.21599197943972
H        -1.81070237438314    3.71232279759528    4.23222166296544
H        -1.86892484078925    4.25918044694699    5.90003720328196
C         0.09179613857903    3.98384576951346    5.13016093247482
H         0.26444323995667    4.80665586531158    4.43416752796141
C         1.05143900909820    3.73553631536253    6.09138761075464
H         1.92534858385852    4.38470035258507    6.09800737443960
C         0.77636595680031    3.03563849386982    7.40102680383941
H        -0.24188343526349    3.26135875253172    7.71800167271095
H         1.44482614685629    3.43464762162998    8.16551322261246
C         0.99382696969717    1.51169868429006    7.31440065855007
H         2.03829381880978    1.28617403224530    7.54144547088582
H         0.38637815168370    1.00789888567163    8.07294990240577
N         4.16310766946424    1.73935240781709    2.16018828695265
P         1.66661570950585    0.74529683577929    2.78576363366309
P         2.95454727467723    3.60459145450828    3.51545863063687
Rh        1.30235094104595    2.31579901027950    4.42154231856756
S         6.02233992558364    0.02795624844485    3.94790426942046

