76
CSD_code = NANVAB | q = 1 | S = 0 | Stoichiometry = C25H47NP2Rh(1+) | MND = 6
C         5.20868941819810   -1.75730784776487    4.27200062366670
H         4.70482624751049   -2.65412786774204    4.64003781899701
H         5.03892529628426   -1.68010602411128    3.18268257811885
N         6.60504859067749   -1.88925256521469    4.61391612156104
C         7.37978174006307   -0.67395044180773    4.44127150597853
H         6.99451508865615   -0.02016019588172    3.64813107803788
H         8.41965054093632   -0.91953315144809    4.21146038670738
C         2.56145311682243   -0.82290486154723    4.92405146941942
H         2.01849446510690   -0.18723528276435    5.63409968998361
C         2.15372653936575   -0.40387866958965    3.50978978100375
H         2.55326359306570   -1.10972323922159    2.77881134704945
H         1.06851273955941   -0.39296979957109    3.40665709892307
C         2.74980798185991    0.97914840065070    3.28212767135522
H         2.24533956829113    1.70306572069531    3.92583109243632
H         2.62214676642384    1.30550534240811    2.25011685792718
C         4.23690653026342    0.90690252048380    3.64854994049611
H         4.79095056941828    0.48893032220254    2.79914078284133
C         2.24027869350711   -2.27314401614307    5.26190010939857
H         1.16463142571526   -2.39085129019478    5.37728957301757
H         2.71480717018921   -2.57358151281874    6.19527675462005
H         2.55920743357033   -2.94729913326213    4.47087348657698
C         4.82650463636925    2.26780051818917    4.00342520411586
H         4.75208740058028    2.94602873257300    3.15508005810928
H         5.88061337419865    2.17303798132665    4.27554952397032
H         4.28485190815112    2.70888993874210    4.84070505425100
C         7.98002891265378   -1.26703044322768    7.14624956019867
H         8.18995111967880   -2.08491304533720    6.45150008057952
C         9.29597931253588   -0.75326898179422    7.73590742634546
H         9.10486052170592   -0.16341597325159    8.63538594243738
H         9.94643825319953   -1.58227345127732    8.01430875387753
C         9.94014740816038    0.12991892866466    6.67256576571411
H        10.25095411686888   -0.48120696938193    5.82273685157931
H        10.82282291176880    0.64206450796158    7.05617857185760
C         8.87528296089156    1.13999358327412    6.23571691263760
H         8.73084242161217    1.85422796901120    7.05497554156234
C         6.96855774022076   -1.76574609452039    8.17207070186242
H         7.31364038973780   -2.69132586577562    8.62878245748843
H         6.01138502144673   -1.95672509079580    7.68005702061308
H         6.81959118042222   -1.03544508828982    8.96426132254908
C         9.22072130273867    1.91742349825485    4.97318393921200
H        10.11671519786667    2.51235343721793    5.13852039402953
H         8.41188155001401    2.59377100564154    4.70072573799359
H         9.41129893595337    1.25077611331840    4.13577713249280
C         7.23376477369167   -3.10094281308943    4.07338917788439
H         8.28625823379822   -3.04500670927682    4.37519823799910
C         6.64007180990348   -4.35056111349873    4.72217822790792
H         6.53771305574628   -4.20598045211251    5.79474252868689
H         7.29962409853644   -5.19588567730157    4.54836236994325
H         5.66815944347631   -4.59811024122182    4.30352256246547
C         7.18894710092310   -3.20214675574210    2.54526686193100
H         6.18170286653712   -3.40614098802493    2.19058821684695
H         7.82817776003159   -4.01710057455106    2.21827830596586
H         7.54679512356519   -2.28341419096485    2.08413422164472
C         3.55069403212570    0.55662520116143    8.18044193617010
H         3.05886159045389   -0.36794506764058    7.87158828920842
C         3.31043196172967    1.69875040157455    7.44543020105714
H         2.65013109619377    1.61817022842252    6.58378582650091
C         3.44042865696254    3.10027061530662    7.99223103649134
H         3.21783485153675    3.08912077560828    9.05895917350581
H         2.69392957347588    3.73771616119060    7.51572836508867
C         4.83410559949295    3.70049007558753    7.73340656792438
H         4.83563725476019    4.20632049742798    6.76503062560515
H         5.05852260445748    4.46099194457310    8.48807293742117
C         5.94371149811564    2.68096731395004    7.73826249649880
H         6.81274452868940    2.99334632651134    7.15742911363157
C         6.11516873955814    1.68978770400807    8.68286353339769
H         7.11698958435109    1.27769860814184    8.79347942103749
C         5.21630920749089    1.49724994523880    9.88119826765829
H         4.83593379191560    2.46781161255331   10.19977075619892
H         5.80598223619592    1.09796449553552   10.70792623514928
C         4.05325119923448    0.52352904589595    9.60127649757743
H         4.37970300121702   -0.49572673546415    9.82184193058195
H         3.21813953004098    0.74299165839585   10.27398974996704
P         4.35682830575851   -0.31387258274310    5.06625050461758
P         7.30859742829951    0.12939861537396    6.11330071600353
Rh        5.25462936914973    0.80827105699641    6.85229538599264

