28
CSD_code = NANWUU | q = 0 | S = 0 | Stoichiometry = C12H8CoNO6 | MND = 7
Co        1.90692260778681   -2.14682170111455    9.47343590133710
O         1.92032524543931    1.31190384776441    7.27649750285475
O         3.84845774589117    1.06768339496347    8.43253156428005
O         3.94660521166519    3.87063319399385    8.52345961705922
O         4.87303055134284    0.22207867472999    5.97311686150877
O         4.37627921101360   -3.64165002261109    9.43320738066007
O         0.50511579986766   -4.09703889283088    7.87199589424610
N         4.42551025239511    1.88811101216365    7.47997669167221
C         2.50630294949955    0.82213208390961    8.20300174086526
C         1.96411486352880   -0.03378670569430    9.24432218640093
C         2.61221317997580   -0.46531767094098   10.44335655511988
C         1.63860537953236   -1.05366018134264   11.29338155539305
C         0.42525626349153   -1.10264901800065   10.58680949143807
C         0.62688926816219   -0.50350344750409    9.31064936666630
C         4.85046246146676    1.38282184202831    6.25976264687022
C         5.26809989765697    2.57972396734753    5.43555481590807
C         4.98371647922166    3.80348953858421    6.30475092130451
C         4.37620726773615    3.26931017545777    7.58277967117712
C         3.39607538054818   -3.05814891947003    9.45663609137987
C         1.05508416298599   -3.32667785166720    8.51048522897276
H         3.60840209024246   -0.17469592058559   10.73773208491556
H         1.78874174075069   -1.32220725353363   12.32659539326669
H        -0.52966258462727   -1.41254664186125   10.98091985599257
H        -0.14372802595460   -0.26734192522655    8.59371398563420
H         4.69263740536941    2.57787717000927    4.50927771419548
H         6.32010182043816    2.47922960068764    5.16743208040036
H         4.27980524008742    4.49757530168243    5.84527015986319
H         5.88422813448573    4.36667634906151    6.55244704061874

