88
CSD_code = NANWEG | q = 1 | S = 0 | Stoichiometry = C29H54NP3Rh(1+) | MND = 7
C         9.39875729604557    8.32334086728045   -0.24180373398788
H         8.88411603759232    7.45896415118305   -0.67549530008084
C         8.39800664753789    9.44183202034271    0.04687647426040
H         8.17810261649766   10.00689204954483   -0.85906177606013
H         7.45962543976096    9.02542881666740    0.41912832836685
C         9.01841784573834   10.32770546487778    1.11852530735559
H         8.30204682181360   11.06408784028799    1.48184531597851
H         9.86510285900588   10.87367141391939    0.69910469167108
C         9.48207350191955    9.42012854417237    2.26614651414499
H        10.35716101671463    9.86365058159549    2.75080004726552
C        10.49915264689765    8.76034576370972   -1.20292676425541
H        10.11989487244676    8.78361246806321   -2.22287944436979
H        11.33690859797266    8.06481456383659   -1.15702813487600
H        10.86306310748057    9.75583229265879   -0.96393938433621
C         8.39320812470673    9.27756504497016    3.32657705712223
H         8.19817184829169   10.25656965703389    3.76130266257629
H         8.70115846776481    8.61878372812398    4.13464562824788
H         7.46304496738282    8.91125922124306    2.89986182265810
C        10.42712577786038    6.29205714376410    5.23514568154212
H         9.36754473969255    6.49074312137113    5.03772868176860
C        10.57787877398068    5.23021594682717    6.32360195326784
H        10.44407303579119    5.66671244524422    7.31348351452162
H         9.82629946848155    4.44847906160763    6.19655542918511
C        11.96679009176609    4.63147942832704    6.16093459999082
H        12.10799494725727    3.77197263014635    6.81584399354670
H        12.71843747008028    5.37654910948415    6.42534297074041
C        12.11669724601335    4.21729480806063    4.69179297935768
H        13.17265058866721    4.27290521324880    4.40276735999747
C        11.10130731299491    7.60451973170413    5.61955214583430
H        10.68099302605814    7.98930497317984    6.54694159754118
H        10.94822767883997    8.34730930669773    4.84052538910079
H        12.17138128035813    7.47102773359313    5.75775500175598
C        11.65479025602792    2.77768062538334    4.48247452700305
H        12.29040923493615    2.11708677436925    5.07013897310685
H        11.73951205962217    2.46858763008245    3.44351580130762
H        10.62947784347737    2.63504003801984    4.81345612977934
C        12.01925332976252    3.30318783513097    0.45622325941085
H        11.29484666242101    2.78429292800283    1.09411695778554
C        11.91547938647749    2.79315305548120   -0.98288615577162
H        12.45912514759915    1.85593319602634   -1.10113559223902
H        10.87275255261937    2.61109531423862   -1.25033422187078
C        12.48304347179072    3.88463435314114   -1.87757711800690
H        12.35943736466739    3.63871987221984   -2.93199467169675
H        13.55159175718041    3.99632390533784   -1.68615082461573
C        11.73177315299917    5.17415659109359   -1.53257659540267
H        12.36746337370996    6.04559533045758   -1.72728249481570
C        13.40307201574522    3.03369267165921    1.03459137541536
H        13.61059377231120    1.96575749046786    0.98130898941732
H        13.44802816166950    3.32283754654466    2.08069357406657
H        14.18699494654305    3.55189618323168    0.48917678420308
C        10.47285107611102    5.30651691896833   -2.38392879942934
H        10.76358907179793    5.38346210375742   -3.43024460444359
H         9.90877083852993    6.20033619283403   -2.13638868424575
H         9.82749297302567    4.43792675151307   -2.28020225012910
C        12.84295724383665    8.96484268969740    1.28844483337239
H        12.01971436773320    9.61937711373057    1.00162755710069
C        14.15508097097022    6.21686568442604    2.23628082644251
H        14.09203638543466    5.15626897632467    2.45668308559875
C        14.22667667610863    6.58204768520662    0.90250549305848
H        14.16534088958559    5.78480093493956    0.16348649724596
C        14.93230280510090    7.82530357837592    0.41092244555966
H        15.36107782938875    7.62329271863912   -0.57200398492182
H        15.76153958500635    8.04109081712664    1.08621259783752
C        13.99027015519033    9.03118043997790    0.31014703615009
H        14.53819331022323    9.96440936324740    0.48203121458253
H        13.58133482279087    9.08507701546853   -0.70081421459246
C        12.97182741568424    8.69498673519722    2.65918219233266
H        12.23150635016938    9.15266905774509    3.31020619219509
C        14.31363942575039    8.49801072548608    3.33455303752518
H        14.25801254098165    8.88359093069875    4.35374614801433
H        15.06436671001324    9.08982025758794    2.80868179987990
C         9.70289504235895    4.63209300553499    3.01517773719098
H         9.99559813031982    3.61195280348602    2.76862627189669
H         8.93992312917607    4.58948976430157    3.80232768174999
C        14.72184418626907    7.02003786330036    3.38098122211811
H        14.36155724533691    6.57976414815908    4.31400606381607
H        15.81247538928116    6.91965717653437    3.37589241979686
C         9.62342745841520    4.78536391278444    0.56608927239013
H         9.06701976427436    5.31977261390298   -0.20553128516169
H         9.42858845209708    3.71331100515206    0.44365078250952
C         8.70660893129829    6.57730278800091    1.92990189202989
H         8.41036817463651    6.76745777417534    2.96167548599102
H         7.83306655657837    6.73762704573388    1.28365383295876
N         9.10087874519335    5.20117920407520    1.83868293380520
P        10.03291509073017    7.81239806208644    1.44415440051947
P        11.20901411970490    5.54698602835781    3.69887977531765
P        11.46324652203306    5.10573892636927    0.33618052889491
Rh       12.15613297565295    6.93826470350154    1.69291325816397

