83
CSD_code = NANXOR | q = 0 | S = 0 | Stoichiometry = C30H46N2O4Ti | MND = 6
C         9.56548391232569   10.91619050828017   10.28831529697872
C         9.79830764095334   10.63602050178057    8.93226557179233
H         9.98951192475342    9.61023121035490    8.64852287095096
C         9.77336858795867   11.63700466383798    7.98179457468969
H         9.95236190201003   11.38743553914884    6.94504256417092
C         9.52479450234454   12.95631357489270    8.33437397258014
C         9.29431389823930   13.24334675251849    9.67572966899150
H         9.09286047325823   14.26700225470180    9.96611607961481
C         9.30576548608922   12.25846493938638   10.64627796189087
C         9.01075301106114   12.56371148462269   12.08727595185204
H         8.93082819710720   13.65758700764063   12.21966271950444
H         8.04502003564775   12.10892850261486   12.34862944877420
C        11.37366671085859   12.39338429584487   12.65679917422256
H        11.42099447206251   12.36839093730006   11.56060172847862
C        11.76384231855342   13.81277319212510   13.10502705599538
H        11.05113982908348   14.53145098822058   12.69573922230193
H        11.73852179993507   13.88327427017267   14.19353958382816
C        13.17120181218261   14.16691580156148   12.63866201889625
H        13.21895704744315   14.14029248199219   11.54775363303340
H        13.42059088604405   15.18008497891098   12.96038050548957
C         9.50756552011167   14.05295074107699    7.31013999258365
H         9.58757471484112   13.64429035857851    6.30603305951458
H        10.33965801509816   14.73965552848400    7.46903171130803
H         8.58496310773979   14.62758215273117    7.37900239871146
C         9.62027054236331   12.41593584586689   14.37007050594638
H         9.46694785867023   13.50422340953585   14.43605327505006
H        10.37705228582460   12.12032623719491   15.09490724216380
H         8.68440808154872   11.92313019971312   14.63346191239001
C         7.10059782353402    9.57191516162435   14.26141002119036
H         7.49767092408716   10.11430702339537   15.14868921589673
C         5.64736265178610   10.01974389043409   14.03191738906215
H         5.60770392286868   11.09491729544934   13.86662372674615
H         5.03126484790658    9.76967225397093   14.89198711373863
H         5.25233039037481    9.52160619341392   13.14872241160377
C         7.15358351660887    8.06972075156474   14.58163242143427
H         6.55337938540815    7.51505427622813   13.86286833316269
H         6.77059702166447    7.88083165927052   15.58279251201039
H         8.19498773793792    7.74391461328080   14.51582238237313
N        10.00067964671272   12.00122017372791   13.02195494461776
O         9.61446290050788    9.97555275558096   11.19402807885063
O         7.86801314174020    9.89120778271312   13.15280512200709
Ti        9.60217928026849    9.60204391343364   12.92897597263224
C        10.91613587152738    9.56541059438769   15.56974169533740
C        10.63585477399308    9.79839803943546   16.92574092965626
H         9.61002897496392    9.98953980429559   17.20939328609462
C        11.63678444094444    9.77370220616008   17.87627546658324
H        11.38713257352040    9.95281340489714   18.91298692903041
C        12.95614088012099    9.52521106594289   17.52381425242090
C        13.24328333175137    9.29456147884324   16.18250997462406
H        14.26697636268247    9.09316331652518   15.89221789441320
C        12.25845885080762    9.30577162921404   15.21190088538009
C        12.56379426143780    9.01059582118362   13.77095569874856
H        13.65767636059480    8.93064189749045   13.63863953931782
H        12.10899991064544    8.04485092396477   13.50966489752767
C        12.39357489637603   11.37346300361191   13.20120357765100
H        12.36865227478792   11.42085746275325   14.29739858395716
C        13.81293142420636   11.76364620567245   12.75288500625910
H        14.53161803109485   11.05095894688534   13.16217595921787
H        13.88338275046850   11.73826045363434   11.66437102624773
C        14.16716767165120   13.17101147572349   13.21915462041386
H        14.14059249225136   13.21881982017655   14.31006141382190
H        15.18032823539446   13.42037208751421   12.89737210868229
C        14.05271204445748    9.50825235858435   18.54812333935850
H        13.64397794583918    9.58839024865969   19.55219055514467
H        14.73934941481311   10.34038338495249   18.38913858524378
H        14.62743467080366    8.58569238379208   18.47945156711591
C        12.41612204849813    9.61992312175363   11.48809473557287
H        13.50441225975127    9.46660146498054   11.42214479368907
H        12.12051316117234   10.37663086757493   10.76317915007599
H        11.92332493691720    8.68403182122973   11.22479671626954
C         9.57192353782515    7.10057243061884   11.59636776396892
H        10.11430729602998    7.49770403369821   10.70910942676575
C        10.01970554131329    5.64729991579823   11.82570913587831
H        11.09487995097126    5.60757638294712   11.99100446081387
H         9.76960830846171    5.03130425158778   10.96557278171753
H         9.52154019582573    5.25219521257568   12.70886008423265
C         8.06972198971160    7.15364894112088   11.27618828139438
H         7.51505190590254    6.55341953634828   11.99492912965611
H         7.88078560858560    6.77073840244651   10.27500769850691
H         7.74396227977126    8.19506245440639   11.34207862777981
N        12.00137110663828   10.00045398580813   12.83616418865533
O         9.97556326944813    9.61418539461942   14.66395289966708
O         9.89128039252585    7.86787766500574   12.70503298607776

