98
CSD_code = NANZOU | q = 0 | S = 0 | Stoichiometry = C41H50ClN3O2Zn | MND = 5
Zn        7.84931663305443    4.38893860191802    6.02309403012535
C         8.99149373474749    9.32451118968029    7.11837278745959
H         9.14897579883945   10.18831172938930    7.74669799613083
C         8.91515129778817    8.06803588688280    7.68471777950347
H         8.98745405810401    7.97097926821618    8.75742453964673
C         8.71571200018715    6.93590879287579    6.89395551717467
N         8.60078423009091    5.64995446538290    7.38794668908593
C         9.05593624328826    5.31209064114706    8.55762415662346
H         9.61039014584305    6.05253608573442    9.14196187319025
C         8.92618246823931    4.04849024541016    9.17203629267940
C         9.43523358189085    3.92281348717544   10.48492203354428
H         9.87451019785547    4.80486079881809   10.92494258795455
C         9.36400779063640    2.74784842275403   11.17684290821734
C         8.78805546103038    1.64408809991960   10.51453409294501
H         8.74502279866249    0.71492272847477   11.05669644697821
C         8.29494609323573    1.68350002741426    9.23716097942764
C         8.33354518844135    2.92497650879277    8.51206133353846
O         7.85376595129593    3.00968761128904    7.32651211501548
C         9.86928570227944    2.57077809952972   12.60017887864707
C        10.47131380749198    3.85805642813704   13.17009679687361
H        10.81497039059561    3.68013314445164   14.18727381112742
H         9.73194972846909    4.65509710282918   13.19958741474227
H        11.32399852404824    4.18406106390895   12.57918159617220
C        10.95506927506891    1.48604239799567   12.62269260030251
H        10.56626433669171    0.52724932237884   12.29147344728044
H        11.34385131718477    1.36458100384199   13.63184713082789
H        11.77673793154534    1.76504258481163   11.96645551836872
C         8.69793655482981    2.15259814631018   13.50027238634277
H         8.26581321497820    1.20991658376011   13.17632135294937
H         7.91768371028257    2.91067420672408   13.47648843176236
H         9.03605270104098    2.03653545637720   14.52806993857717
C         7.71996865555541    0.44221308925354    8.56446694705783
C         7.76252268195044   -0.79926989974015    9.46259941241433
H         7.16473833939649   -0.66084823153998   10.36131320149158
H         8.78312242266050   -1.04957053841227    9.74350467005220
H         7.35149217615406   -1.64613149255055    8.91633206037950
C         6.25567663486191    0.69720633184660    8.18240415713660
H         5.82224801682495   -0.19976222505555    7.74464351373887
H         6.19546614323640    1.50010887325246    7.45601438161588
H         5.67597161595498    0.96914549474192    9.06332032976641
C         8.53740865849359    0.14234137759192    7.30179063558933
H         9.57810323165457   -0.04262264871170    7.56129765830787
H         8.49111000052738    0.98240989460654    6.61756234787912
H         8.14210055416603   -0.73817289155073    6.79987112945652
C         8.85026712806106    9.47679693243439    5.74809561547619
H         8.90377292977813   10.45926023509787    5.30337675315302
C         8.61825393297129    8.37503389846281    4.94964572334504
H         8.47761951996118    8.52446257662580    3.89006141193924
C         8.54838048714463    7.09268435706322    5.49617743546212
N         8.27512261782739    5.93519823069905    4.79121938921897
C         8.21749674693063    5.88654709966131    3.49479679255522
H         8.44423425549409    6.78267957260757    2.91018933246980
C         7.85012437450066    4.75836633816011    2.72553302644992
C         7.64125156519938    4.97119690088225    1.34418771565083
H         7.80660781803137    5.97109837706652    0.97292885352497
C         7.21460103666892    3.97154276369355    0.51688561926283
C         7.03348246538031    2.69537691971224    1.08788002497468
H         6.70149171959884    1.90733412264648    0.43367582120277
C         7.25839813086691    2.40369658717957    2.40742771886745
C         7.66940682115200    3.45666588589085    3.29509798124707
O         7.87364420501620    3.22576055565837    4.53904904510693
C         6.92433034794818    4.16424742058892   -0.96316106421376
C         7.82796948821746    3.23370719543515   -1.78379296253383
H         7.64231610988487    2.18969020363807   -1.54785907556486
H         8.87406003450833    3.44873752720715   -1.57604040290566
H         7.64935144906602    3.37850055707394   -2.84745092773483
C         5.45022182014437    3.82875026630200   -1.23112917545662
H         5.22587339262673    2.79619854919990   -0.97828021055078
H         5.21468236940026    3.98047150700318   -2.28263861716095
H         4.80455741396950    4.47198966821957   -0.63634628146190
C         7.17731606793212    5.60181514740152   -1.42565180004066
H         6.95698954610885    5.68640699733354   -2.48804839540873
H         8.21697787808408    5.88269117856920   -1.27434180402235
H         6.53717096701112    6.30174535386838   -0.89339596836612
C         7.09002336638259    0.99191176448952    2.95585939059798
C         6.61878551447616   -0.01014298515153    1.89588672519059
H         7.33484577752530   -0.09186987990970    1.08107804451134
H         5.64574362383817    0.26575067362672    1.49416585722461
H         6.52414407428893   -0.99265128854833    2.35433736227774
C         6.05538043474569    0.99243901654549    4.08947730885209
H         5.92714596412128   -0.01595903179606    4.47704114354417
H         5.09322678227104    1.34728411505750    3.72222384967961
H         6.38229102889846    1.63371579137443    4.90094284326021
C         8.44833270537388    0.51632320032633    3.48743729823521
H         9.17901894540139    0.49062726561394    2.68095393090388
H         8.35948080586890   -0.48242427452643    3.90912509328231
H         8.80434345919929    1.18990800229734    4.25941406383087
N         5.67514481047847    4.55676746660043    5.96639073759348
C         5.00082760545882    3.91131343687270    6.91083413436445
H         5.45936272998877    3.89252652425312    7.88782374131059
C         3.78722117872520    3.28543610421241    6.67388526679542
H         3.28055948385809    2.76335462463713    7.46976141940660
C         3.24948193184123    3.31916461347844    5.39854361863257
H         2.32104848025941    2.82268900399751    5.16277084229388
C         3.94831950252836    4.01634286415151    4.42294188419451
C         5.14804856664519    4.63132599492544    4.75316280037500
H         5.70165322936875    5.18337536338071    4.00900922063654
Cl        3.36545735976903    4.11007144265485    2.80827794041571

