69
CSD_code = NAPCAI | q = 0 | S = 0 | Stoichiometry = C32H34P2Ti | MND = 12
Ti        9.79599376395884    3.58680308489051    4.18923975700539
P        10.86386863545571    5.81645438702620    4.20003762497493
C         9.39668923456371    1.65857872544858    2.93348654041538
C        10.59451602418949    2.27943470354850    2.50483087353613
C        10.26620089943753    3.53066829099118    1.93244383745484
C         8.00543474341050    4.68336808015011    1.29275905128944
C         6.54867352647731    4.57576053695342    1.74332040518913
C         6.09815956452527    3.11757221859050    1.79388045692598
C         6.85571701629836    2.36373243989272    2.89006995628665
C         8.33301066861161    2.55531945515773    2.68633517057487
C         8.85863221402391    3.69362454333888    2.02616893166520
C         9.32675990619905    0.30621264022564    3.57898914991188
C        11.26268869042411    6.41547770543316    2.53202700389575
C        12.47181695854132    6.00993371235372    1.95908185786208
C        12.87325130835917    6.50407279408892    0.73425471016855
C        12.08177981788653    7.42388250263388    0.06328419670566
C        10.89724257697485    7.85788956549243    0.63637278264700
C        10.49519052867238    7.36866029504881    1.86438293722477
H        11.57345683309651    1.81241599004813    2.47517207328449
H        10.92561679300563    4.14216644429688    1.32950424035414
H         8.07745685855869    4.46103752476830    0.22037547537128
H         8.37331642152796    5.70463609882046    1.43698085364329
H         6.45188961344330    5.01616547213636    2.74138780045064
H         5.91195329186686    5.14144223208736    1.06075759238202
H         6.29532136011019    2.64328305633119    0.82899271689913
H         5.02434686385711    3.06329043205723    1.98502787437189
H         6.54722661999321    2.75992660226836    3.86887507799549
H         6.59837284454017    1.30050329519021    2.86197880850669
H         9.62406803732834   -0.47245670923939    2.86883016763105
H         8.30254600140804    0.09547047627033    3.89610397676460
H        13.08719270305843    5.28936794942563    2.48830410524264
H        13.80622625490850    6.17444616093707    0.29852447660338
H        12.39342987990089    7.80788641508989   -0.89693936565299
H        10.28690001971587    8.58847368287818    0.12434233812501
H         9.58130255191478    7.72472858036367    2.32507589321093
P         8.72818860189927    5.81678194359948    4.17835719155203
C        10.19532108219489    1.65858241287649    5.44496982374669
C         8.99747697811049    2.27940069440088    5.87362430809157
C         9.32575809982547    3.53063443326090    6.44603308750767
H         8.01854493454144    1.81236173407625    5.90325809269688
C        10.73332143391304    3.69363791791105    6.35231318247535
C        10.26529557759342    0.30622452633981    4.79945267162154
C        11.25897736804692    2.55534649574100    5.69215143217139
C        12.73628279396513    2.36378509339665    5.48846279399901
C        13.49380096844585    3.11759600280240    6.58469607362979
C        13.04325776345245    4.57577950391205    6.63526258748082
C        11.58647876356260    4.68338871301011    7.08575954633381
H        11.51442770769198    4.46104220357998    8.15813708879002
H        11.21859193245471    5.70465428197725    6.94154143248166
H        13.14007613072858    5.01622026582985    5.63721505760071
H        13.67994019878046    5.14144640271533    7.31787070663145
H        13.29659848634799    2.64327357421221    7.54955986654871
H        14.56762334996067    3.06332201084323    6.39359078110276
H        13.04480150677035    2.76001174080024    4.50967970159554
H        12.99364444589698    1.30056064156158    5.51653292267740
H         9.96801836227481   -0.47246356779005    5.50960393105657
H        11.28951594241975    0.09552154311746    4.48233244381961
H         8.66632117675237    4.14211211393325    7.04896894307311
C         8.32936121756832    6.41554767166027    5.84647755666417
C         7.12021040146729    6.01000091665544    6.41936227728099
C         6.71878079493026    6.50409421442169    7.64421596167067
C         7.51026763876671    7.42386907634033    8.31520777014686
C         8.69480512687315    7.85789591442072    7.74213794224554
C         9.09687340122782    7.36868925533595    6.51412807494665
H        10.01073514640844    7.72479097042499    6.05341224700050
H         9.30515287183922    8.58846219534475    8.25418385059498
H         7.19864143404467    7.80781263149495    9.27546244666250
H         5.78581338029607    6.17444524485592    8.07994967091352
H         6.50484595469417    5.28944184195137    5.89012918630350

