54
CSD_code = NAPJET | q = 0 | S = 0 | Stoichiometry = C20H25O5PSi2W | MND = 6
W         9.90229313778936    0.00052865720452    8.57008598223563
P         8.99240951549824    2.24219340868999    9.03533777600415
Si        6.54266950640335    3.90298271627436    7.91852669988544
Si        9.72158441427928    4.45237954129033    7.08920447303161
O         9.47922543453289   -0.59620880554746   11.62591802688295
O        12.83068336427466    0.88091756766092    9.29081790226983
O        10.23375535313864    0.70846273515874    5.52835908210061
O         6.98873759315045   -0.96372797031589    7.90318181088476
O        10.95343570603424   -2.89232215972518    8.01331420095413
C         9.63702688578258   -0.40232348015937   10.51085362605999
C        11.76475936006008    0.58243619607775    9.01028405575471
C        10.13355773947568    0.45493295978288    6.63983649503260
C         8.04512732794696   -0.60073681690903    8.14866979693943
C        10.57290878016521   -1.83302173128851    8.21577942897673
C         8.18451848137436    2.63813575123731   10.61520794034928
C         9.32329283770859    3.31100895241132   10.45279550811551
H         9.99745401732474    3.95934683964158   10.97399822998514
C         7.13193795107225    2.32288328428247   11.53451780340452
C         6.43996661117366    1.11814872684046   11.40739037261158
H         6.71272354531633    0.43615055222978   10.61239890304193
C         5.44280361688783    0.79000613055243   12.30440549531555
H         4.91696265305590   -0.14782670801743   12.20536691998226
C         5.11567294517759    1.66521202657805   13.32825880472831
H         4.33076863777431    1.41143184804170   14.02490628839129
C         5.79846097601107    2.86456859587795   13.46190085291683
H         5.54538897570832    3.54269269548139   14.26362647848299
C         6.80553883136559    3.19392994610112   12.57611255736575
H         7.34371560716925    4.12491302360600   12.67588910348906
C         8.32814447128342    3.24713768342414    7.65450859267821
H         8.24248030881535    2.50500476786347    6.85155855892175
C         6.34769391520212    5.04066291008563    9.43934754503952
H         7.29343335672508    5.45784147055026    9.76566730189641
H         5.91853811874340    4.50392153712860   10.27934011700135
H         5.68412819564784    5.86843453644066    9.20931380545503
C         5.41997030827986    2.37150941551685    8.08760469669385
H         5.82516147134025    1.66847315145839    8.80909555275818
H         5.32142279080864    1.84715656958590    7.14142342774280
H         4.42148389273822    2.64053389520124    8.41859303148481
C         6.02618031765987    4.87556322825518    6.36157677144548
H         6.58051423206256    5.80279258547602    6.26259167094217
H         4.97204484615355    5.12841053610432    6.40865936905600
H         6.18242948185915    4.29788436869813    5.45670602349715
C        11.42856640572086    3.70853188092213    7.49964298261942
H        11.58252902548738    2.76411171782949    6.98391234034540
H        11.53312976171277    3.51955167669865    8.56520965332303
H        12.23430084184446    4.37470585887696    7.20491973711290
C         9.60074780932668    4.68535208740629    5.20223108670501
H         9.70540657087779    3.73978277754399    4.67943872553619
H        10.38800482394744    5.34261619243168    4.84837030704703
H         8.65273470085487    5.12158807000630    4.90861140992835
C         9.55423843809637    6.12839077300182    7.98384641745197
H         8.59540980138588    6.59446976607541    7.78458097248013
H        10.32782245711256    6.81201235970228    7.64942416633426
H         9.65470385066810    6.02366570065016    9.05938112131680

