79
CSD_code = NAPKEW | q = 0 | S = 0 | Stoichiometry = C32H43N2SiY | MND = 11
C         7.38681153412357    4.87865476185240    4.06397630134263
C         6.37646824610741    5.18800037290534    2.98085744727253
H         5.36838431905975    4.86545640246221    3.26914614042693
C         6.42782517783817    6.69067520262383    2.89991395332265
C         7.34855304303563    7.17523598010070    3.75055205121442
C         7.94849214352432    6.07954107929503    4.51526990124895
C         8.85698735811827    6.27951440730721    5.59895449341048
H         8.64534723120091    5.63745393110726    6.45923906797107
H         8.95217015139962    7.32347395756367    5.89890747152163
C         7.71066389059618    8.60169998047318    3.99386078812612
H         7.23122562392516    9.25599678579191    3.27122511308090
H         8.78941771964927    8.72597781647560    3.92164841121398
H         7.39767860533948    8.90547566686459    4.99361078261732
C         5.54864239371691    7.43905935756840    1.95764135772819
H         5.34675198123744    8.44312318921107    2.32294148145297
H         4.60089634752960    6.91967089260037    1.82797266807552
H         6.02265207938369    7.52514168994090    0.97847092548271
C         6.73438101791878    4.55921743971359    1.62930221246630
H         6.00596305832800    4.84174449823750    0.87228739426410
H         6.76534356209536    3.47461375959484    1.69439030237812
H         7.71730367399949    4.90349611435461    1.31581095972604
C         7.72840165739499    3.56325252548204    4.45574790662873
C         6.88806288968674    2.46159584569624    4.14591484163567
H         5.95811959914538    2.63730734200768    3.63000605143850
C         7.22632643578667    1.19664963545357    4.53996854235373
H         6.58079882219471    0.35858782987667    4.31783332368741
C         8.41242496419325    1.00244347281426    5.25520019902566
H         8.70505997759431    0.02345969782544    5.59894276295561
C         9.19022975751112    2.10735020508040    5.52096433611309
H        10.11084439198530    2.00280877022741    6.08901597944901
C        11.08892836795823    6.18085816630729    2.13804338020320
C        12.14780564052216    6.31300575460210    3.14548876380292
C        12.22569969200881    7.70410517679878    3.43509019541023
C        11.24622943403550    8.38391277751223    2.69992768705988
C        10.56295182746075    7.46259007236761    1.88991577848061
C         9.42075636618381    7.77368372600749    0.97615928084548
H         8.87615470849113    8.65195149818283    1.31334833176266
H         8.72344954905611    6.93970286650139    0.93291620780752
H         9.78008969477415    7.97447673183594   -0.03573384168654
C        11.02957787125453    9.86394715819143    2.75267981931844
H        10.15688136696830   10.15746504848798    2.17536180116043
H        11.89459916851226   10.38786102828128    2.34317134154907
H        10.89526760663637   10.20418870811205    3.78071748744019
C        13.26899169770309    8.34057409645343    4.30029593349263
H        13.56747325735967    7.67261390727446    5.10882915553103
H        12.89702192158374    9.26558306015494    4.73622179382361
H        14.15713920339269    8.58343396926525    3.71262148081826
C        13.42256716336830    5.47736164357989    3.04938464243912
H        14.00204658430106    5.82840635045553    2.18938948814590
H        13.22140968231286    4.41434635821993    2.89739098124170
H        14.05034132147964    5.59718173210698    3.93212631565558
C        10.64679035478727    4.90971122099456    1.64768057780445
C        10.21824281166432    4.69173520025498    0.32431693002794
H        10.23627933688618    5.51289704107724   -0.37353617874658
C         9.81849433100248    3.43744350167244   -0.06800054083750
H         9.48915643358870    3.25677033787795   -1.08125748075886
C         9.85622491066328    2.39332272765272    0.85589133395949
H         9.55314701347826    1.39485278349786    0.58484636282604
C        10.29795996621435    2.67119058060007    2.13297136945861
H        10.35252435593748    1.88399537432096    2.87865855757362
C        12.39328264537536    4.18860092938710    6.29872774469569
H        12.39421304680364    3.09091818461811    6.26075290015573
H        13.40283301435659    4.49150451646981    5.99664790048527
C        11.98538825517304    6.66850620458528    8.05909535840088
H        12.96814213143028    7.11782739797155    7.95205735574891
H        11.55742587066020    7.04962449929793    8.98086069467461
H        11.36729954198737    7.02297521025593    7.23118106713522
C        13.47208530422058    4.29306433386867    9.34321494100734
H        13.59403712930760    3.21696835785828    9.41812003789305
H        13.23800559775894    4.66594879126943   10.33565871945760
H        14.43192386932275    4.71031416413552    9.05497072143383
C        10.46496092705160    4.01086038774507    8.72377172695382
H         9.68564493933199    4.04151859718711    7.96591601705368
H        10.10280076244905    4.54738740570273    9.59486795297398
H        10.59665429140897    2.97375431569114    9.01585818999606
N         8.89129817212729    3.35186776355403    5.14192765007200
N        10.67320552517943    3.88074918443644    2.54150314455135
Si       12.10894948262161    4.75173223514984    8.07482303372945
Y        10.78112019999736    5.03893031165874    4.81175472032384

