55
CSD_code = NAPMUM | q = 0 | S = 0 | Stoichiometry = C16H36N2Zn | MND = 2
Zn        5.84995844271688    4.14832745522647    2.53216847668907
N         6.19191283723186    2.31396471800886    2.92091820180050
C         7.49308632488853    2.16336181395168    3.55608610237347
C         8.66797257815687    2.48863980571027    2.60833806614424
H         9.59909954251951    2.55250143615713    3.16793307332391
H         8.49162870943401    3.44772477313078    2.11781215817619
H         8.78356239360385    1.72848199848570    1.84261222776969
C         7.53080735952844    3.18408904507806    4.70676191383893
H         8.47273478225943    3.12355583483267    5.24687938287146
H         6.71640069651591    2.98460021367913    5.39858213422185
H         7.41900154870142    4.20034447589762    4.32097471622621
C         7.75807917518608    0.78907799235908    4.19118117024754
H         8.69678860403636    0.83163161471091    4.74022864922565
H         7.84829621629650    0.00727053476281    3.44452029338575
H         6.96581945202383    0.53344596559093    4.88751242950356
C         5.55780686628941    1.28107957526468    2.12036479606684
C         5.00239266597255    0.12960147021564    2.99135963945850
H         5.76824577606143   -0.58947076128704    3.25585769134134
H         4.22293040441789   -0.40090388063485    2.44902092816615
H         4.57359573209510    0.53954333914190    3.90191803816891
C         4.33341341327499    1.92015679525638    1.44702985194471
H         3.78852781032950    1.18457439349948    0.85970103731335
H         4.64443565083495    2.72387439036482    0.77474936820159
H         3.66241255770332    2.32041575383218    2.20508878944243
C         6.43132065412937    0.69621453070618    0.99364202556403
H         5.83322471537070    0.03098333363640    0.37402393307169
H         7.26616157040526    0.12460235800396    1.38659123449563
H         6.81889383679857    1.49731637989836    0.36670109329153
N         5.50275435340153    5.99495558137089    2.84888045835785
C         4.19621172051629    6.16808896748821    3.46692492259906
C         3.02934397601457    5.81280355874501    2.52004513845136
H         2.09374319587614    5.76531565563319    3.07385511509107
H         3.21040652138966    4.83913181794257    2.06063837975400
H         2.91929402160343    6.54907005861843    1.73036220492696
C         4.14630447794586    5.18663195800450    4.65077625985015
H         3.19981765815458    5.26706450818489    5.18035080688529
H         4.95526180845101    5.40753726187564    5.34263772873450
H         4.25898590990192    4.15771844025823    4.30022841012149
C         3.92828508561300    7.56321218478074    4.05346629823236
H         2.98452003228036    7.54069605897450    4.59492703800632
H         3.84667012457220    8.32010362497820    3.28068593317848
H         4.71477714183103    7.84019317759372    4.74813106574409
C         6.14406442244951    6.99916079569521    2.01799664802337
C         7.37082899846727    6.33525059284382    1.37347168763441
H         7.92132134223479    7.04983567558715    0.76559674256385
H         7.06156394013752    5.51063071785204    0.72624066568193
H         8.03634903916299    5.95860096794059    2.14833174036480
C         6.69707193396721    8.17749188094473    2.85388894125438
H         5.93118330275886    8.90587834140056    3.09137089311581
H         7.48022576534220    8.68895219761361    2.29862271165869
H         7.12055918018473    7.79642319183893    3.77938396015226
C         5.27904464982367    7.54821329655103    0.86693628071809
H         5.88305404177452    8.18998069566557    0.22856813225536
H         4.44406466641842    8.13571408880897    1.23529884192333
H         4.89238237294794    6.72753934734335    0.26532557239461

