87
CSD_code = NAPNUP | q = 0 | S = 0 | Stoichiometry = C46H37NP2Ru | MND = 8
Ru        1.89685463407816    3.73168888812535    1.10075309107868
P        -0.44193041896419    4.04549882660391    0.68550921034183
P         2.41901613949444    5.45552386394658   -0.29617871079018
N         1.72776218093111    4.93167156515812    2.52720492375093
C         2.33094956785699    1.88950879063490    2.30146394537470
H         1.94021534285072    1.56105909487407    3.25625811905503
C         1.83338170051444    1.49206522420888    1.04104412468563
H         0.95802021146198    0.86944532113364    0.89944887762476
C         2.70622986129943    1.95572862956811    0.02265147531668
H         2.68321888054750    1.64172315727431   -1.01491104720894
C         3.89238598032653    2.45600321867831    0.67802595496755
C         5.14300003665290    2.85777140064600    0.19038936710348
H         5.33849699973950    2.85376829043835   -0.87341394654368
C         6.11988053496270    3.22081706381133    1.08973032374592
H         7.09420086645731    3.51695972443005    0.72904138027143
C         5.88323368384085    3.20317309754821    2.47062501398923
H         6.67933762899097    3.48919084212835    3.14294048439642
C         4.66542737280380    2.81556035852688    2.98324526769879
H         4.49440753887389    2.78727768190638    4.05140920398774
C         3.65159847458918    2.42860352025396    2.09552233378900
C         1.89225259690365    5.62228565241516    3.45069270551800
C         2.10667966992894    6.54997597649662    4.47483055275418
C         2.14534038286507    6.15685546932492    5.81838285787522
H         1.98997620615746    5.11882279392444    6.07302712638311
C         2.38035177776966    7.09545112114762    6.80153325747796
H         2.40920762008691    6.79006126761003    7.83726729960703
C         2.57944285978196    8.42694227120605    6.46716110118339
H         2.76364642691766    9.15601082591177    7.24178040181472
C         2.54117772062737    8.82129490914850    5.13697173492330
H         2.69645690920640    9.85817266034105    4.87726032796696
C         2.30642279945611    7.89786991577100    4.14086778500258
H         2.27876146899818    8.19444477129114    3.10249860400085
C        -1.13705141329064    2.61184530172884    1.53826718565500
C        -0.87496438515556    2.52269049555449    2.90983589207798
H        -0.23408443084690    3.27098727678170    3.36452747114671
C        -1.41608473432531    1.50829773425014    3.67051829030122
H        -1.19528345934515    1.44572735049349    4.72748761730654
C        -2.25041575440315    0.56849324252497    3.08207833250007
H        -2.67087349689288   -0.23148633592700    3.67414642247226
C        -2.55396218878185    0.67246532416907    1.73510696788001
H        -3.22127583609314   -0.04457374366024    1.27695316476876
C        -2.01413624481366    1.68906724640731    0.96822619375236
H        -2.27505839707121    1.76848560260510   -0.07764869699586
C        -0.70623371190571    3.61572252813635   -1.07071301121031
C        -0.34006741674003    2.40167029585300   -1.64999769471627
H         0.10585862037053    1.62910349249274   -1.04200601119401
C        -0.54490676866683    2.17540510442135   -2.99839348516342
H        -0.25603577483859    1.22856833476762   -3.43420750752595
C        -1.11491982550329    3.15734998327547   -3.79376695094239
H        -1.26686041640723    2.97911424592749   -4.84869462641327
C        -1.49650043967114    4.36145292007185   -3.22710291302220
H        -1.95280393587333    5.12728333070818   -3.83814419648534
C        -1.29952134455257    4.58500106644844   -1.87665295490895
H        -1.61213395446573    5.51662203293353   -1.42754122263595
C         3.52914982760090    6.68882904311806    0.47626657808762
C         4.34903831260388    6.27141947624377    1.51932388785509
H         4.32413029482489    5.23563524846227    1.83263490546489
C         5.19057264113431    7.16673384358473    2.15334832548564
H         5.81884901159862    6.83197313483525    2.96569693177105
C         5.22001322198375    8.49109737846937    1.74936701004053
H         5.86996046245627    9.19494759546106    2.24806571234672
C         4.41403458891443    8.91235591271467    0.70355589214177
H         4.44020241297235    9.94413326034366    0.38379516454123
C         3.57188418093418    8.01866118905564    0.06661518899366
H         2.94374582144055    8.35122185338024   -0.74785076143490
C         1.12973294233530    6.57872814609493   -0.92144514247283
C         0.30282542277032    7.12940823198237    0.05713958463535
H         0.46123646545393    6.84991448582826    1.09298740932664
C        -0.69668046832289    8.01506771305019   -0.29678866355929
H        -1.33661029787344    8.43968918413482    0.46260227081255
C        -0.88234873052302    8.35071509271472   -1.62983697407079
H        -1.66737641848321    9.03822188851068   -1.90931969905470
C        -0.06440295609220    7.80289695830557   -2.60345102359310
H        -0.20948601767132    8.06503936505119   -3.64156942368293
C         0.94236407410741    6.91799583026696   -2.25491093619223
H         1.57908197211379    6.49596338190784   -3.01930962006519
C         3.33592202166489    4.99864522076674   -1.79907558885442
C         2.68166475932146    4.16084283593004   -2.70058137714383
H         1.66276895454390    3.86025016747225   -2.49224984832025
C         3.32886460125054    3.72390483674414   -3.83987711261664
H         2.81478913579467    3.07854033590526   -4.53754157674412
C         4.63900579385301    4.10955260394906   -4.08194159084438
H         5.14942313271818    3.76285729049528   -4.96864909030773
C         5.29510216303661    4.93452911998817   -3.18386485887363
H         6.31775478592600    5.22988812590507   -3.36995831301798
C         4.64953663398021    5.38025777308334   -2.04256493608550
H         5.16696290484943    6.01776445134393   -1.33952373868175

