89
CSD_code = NAPPUP | q = 0 | S = 0 | Stoichiometry = C36H48P4Pt | MND = 4
Pt        0.00779859883827    4.91120682355398    6.30738898148361
P        -1.46984603711718    5.85795152606167    7.77526856158093
P        -0.82817211281577    7.21629194783571    6.39087226434950
C        -3.25537139702343    5.20291585870628    7.60942279204443
C        -3.48365014185830    5.19543807900173    6.09977389952478
H        -3.51797036741963    6.21374985199525    5.71520540860319
H        -4.41411570568743    4.68793428826363    5.84758186999414
H        -2.65075790947852    4.67803826570164    5.60556551453541
C        -4.26238673528944    6.12267126046161    8.28687934339028
H        -4.09419543939575    7.15345422703025    7.97528132296970
H        -4.18702788133428    6.06700898497153    9.37103674828604
H        -5.27666446016466    5.83824209885041    8.00471710239288
C        -3.34543860473305    3.76974665058365    8.12238250589752
H        -2.50602722247945    3.19206250254136    7.73165728002675
H        -4.27225830267792    3.30727407876151    7.78172971441613
H        -3.32091205228246    3.71788469327738    9.20651565060630
C        -0.97302224797331    6.20615221844524    9.57820070359659
C         0.55308786393119    6.21564176435664    9.52046120792480
H         0.91514073645063    5.26019266291214    9.12758234755505
H         0.98046180983694    6.37111764928239   10.51062368630021
H         0.89438031988612    7.01505809360914    8.86247647789946
C        -1.48319725049241    7.58845952198223    9.97433256474007
H        -2.56420263818546    7.59458370784636   10.09418165885399
H        -1.21785368041564    8.31251689126235    9.20373264746797
H        -1.03238833623445    7.90098327076419   10.91656748003365
C        -1.43586277135833    5.13872593306748   10.56160278525389
H        -1.14333947726259    4.14701025736943   10.22085245302536
H        -2.51404116442587    5.16446638883488   10.70005867630868
H        -0.97224060403374    5.31463307512318   11.53306780889442
P         1.25948910133944    5.15737586822159    4.39530129108251
C         1.71984711432713    3.67957152301087    3.43360790716944
C         2.86751682889788    2.95996764263167    3.75988565166993
H         3.53890137709491    3.33853248965795    4.51725162342983
C         3.15240192112227    1.76627212190896    3.12349271012613
H         4.04869025213000    1.22235645958254    3.38515749401709
C         2.28974960855608    1.26618881241152    2.16126579343224
H         2.51208830570399    0.33270117236715    1.66545357406514
C         1.13684977955605    1.96526323540254    1.84319909378382
H         0.45685823399939    1.57498538839463    1.09944607279130
C         0.84998667217052    3.15983551396313    2.47817565731139
H        -0.05976718990306    3.68964527054403    2.23331398682440
C         2.84462815660142    6.01770700077587    4.64842592137253
C         3.94312498048912    5.89665554789454    3.80448712611225
H         3.89904778001449    5.24728461301875    2.94148801881012
C         5.09983721396166    6.60669146621081    4.07319154708229
H         5.95313381535620    6.50626146151115    3.41746610118001
C         5.16751747988323    7.44561779610118    5.17368648261123
H         6.07596184620357    7.99351673711507    5.37845842480158
C         4.06919765254523    7.58342625052626    6.00689401439001
H         4.11523363922046    8.24377000721942    6.86067182953867
C         2.91480247912813    6.87054981740901    5.74484130256444
H         2.04080074091154    6.96907151905661    6.38261864959736
C         0.46462130869309    6.26683038209964    3.15101969930906
H        -0.51811776687387    5.84340811193927    2.92068224175384
H         0.28266373618959    7.20182498863729    3.69202453769791
C         1.26704034429503    6.52091245109645    1.88356749857206
H         2.20242532758313    7.02562348570810    2.11573663841794
H         0.69669360934488    7.15565950967261    1.20768161062719
H         1.49640605284477    5.58965100667775    1.36796051315884
P         0.50702424523899    2.69809349929930    6.91084059278100
C         0.05706798096013    1.89826906632322    8.48731401948507
C        -1.05589812647701    1.07245937404864    8.61023476389058
H        -1.64849596629389    0.82409571384683    7.74154151921871
C        -1.41428616405093    0.56263164502253    9.84494396373991
H        -2.28036119173338   -0.07805036454482    9.92827590805961
C        -0.67149844791106    0.87373951273730   10.97136201172479
H        -0.95559000084238    0.47613932306430   11.93436124759132
C         0.43556324061451    1.69956814250809   10.85847527894231
H         1.01873854713791    1.94685628269839   11.73360831381155
C         0.79401829401242    2.21323076911190    9.62715054165193
H         1.65588602648808    2.86145159608012    9.54120825556430
C         2.31938479696728    2.52350522411694    7.00086847948089
C         3.05583316840280    3.68914032521682    7.17737008302381
H         2.52495141550184    4.63401615534253    7.26549952122030
C         4.43724384450110    3.64970551816948    7.21855864951599
H         5.00048389734218    4.56342450837752    7.34203268279965
C         5.09086690599355    2.43551735080391    7.08499286542567
H         6.17029173229273    2.39732631417154    7.10569269462878
C         4.36115239567752    1.26747729750216    6.92604789307040
H         4.87417362534361    0.32117299781767    6.82992224421853
C         2.97907086422122    1.30585823709401    6.88812772627865
H         2.41428914568085    0.39242897214378    6.76774800341023
C         0.05161781278484    1.42434012549680    5.64176199694788
H         0.86924011643181    1.40652583050201    4.91568623934014
H        -0.03385236066934    0.43312627018668    6.09423193036439
C        -1.23932077481350    1.82735404561308    4.93822651635717
H        -1.40731505511746    1.21710351595764    4.05256836007389
H        -1.16779291001287    2.87525716030378    4.62986593481062
H        -2.10094424783551    1.72796536777185    5.59590929132765

