75
CSD_code = NAPPIE | q = 0 | S = 0 | Stoichiometry = C36H28O6P2PdS2 | MND = 4
Pd       -0.23391033942703    0.86430979739499   15.13047961828705
P        -0.42665999219210    2.14202114897997   13.34692395294554
C         0.51976702878577    1.69490884786925   11.85197558871088
C         0.93391744989282    0.38563071825686   11.65908578620706
C         1.59486922865139    0.00708387803093   10.50879015194920
C         1.84317427022592    0.94456413128049    9.51825423186326
C         1.45453174792873    2.26212543600865    9.70700031461462
C         0.80025398361513    2.64246845803480   10.86637973909134
C         0.12609774716855    3.87008883970443   13.54216992009604
C         1.42702330080108    4.00169995193747   14.02539166408388
C         1.98334779668678    5.25392437326205   14.19489151962854
C         1.23804130070033    6.38487230136538   13.89499730756587
C        -0.06191389735405    6.25827691653730   13.43766563904538
C        -0.62197896061154    5.00350253395847   13.26050640348776
C        -2.14908666719246    2.16935812397710   12.76902678482310
C        -2.53588262697816    2.76374438034843   11.57046107894163
C        -3.86716857085147    2.75037266670160   11.19355574203131
C        -4.81316995848363    2.14002394170032   12.00195404845932
C        -3.09799872940048    1.54191862062756   13.57533245924713
C        -4.42702335174677    1.53207692314834   13.18603008081964
S         0.73854920424716   -0.75099595368475   13.04505791165169
O        -0.64389280862359   -0.46810297423830   13.50400649403118
O         0.93160976103192   -2.07902055839783   12.54601746885039
O         1.74148621716783   -0.25275933096151   13.97740308822214
H         1.89894803663866   -1.02351027078197   10.41531943756606
H         2.34973852948875    0.65475735609623    8.61010815002526
H         1.66509633170582    3.00132583923677    8.94802703257055
H         0.52651051743709    3.67784797893726   11.01568987701288
H         1.98706109298573    3.10122640513995   14.26045245240004
H         2.99417570928566    5.35316941664206   14.56120408430248
H         1.67065779977694    7.36573604249305   14.02316605205196
H        -0.64361389679811    7.14020727024706   13.21407100898355
H        -1.63744100467442    4.90485911092654   12.90551601562586
H        -1.79748345267862    3.22239747609211   10.92830623771302
H        -4.16588550234403    3.21083765577021   10.26309807176231
H        -5.85003943940004    2.12817472838139   11.69970643779558
H        -2.78855923252007    1.02581921094384   14.48679837916913
H        -5.16101649213135    1.03935534722646   13.80556911817597
P        -0.04089772950525    2.14198373240942   16.91412178871436
C        -0.98724060384353    1.69484703137943   18.40911260668891
C        -1.40140251603358    0.38557552262098   18.60201577109020
C        -2.06221361854676    0.00702214431714   19.75238731271560
C        -2.31036768252294    0.94449468626194   20.74296970095400
C        -1.92178727394750    2.26206514833030   20.55416994741491
C        -1.26765393577369    2.64241364426082   19.39471677186640
C        -0.59352510204776    3.87006808985790   16.71866666229054
C        -1.89447921062958    4.00172820294730   16.23554153513584
C        -2.45081879281653    5.25396895475782   16.06622087235181
C        -1.70552416903563    6.38488120398046   16.36626514047082
C        -0.40554599980128    6.25823978562807   16.82350852210791
C         0.15456494468589    5.00345089930802   17.00040894149344
C         1.68155804251402    2.16929116672160   17.49192983637437
C         2.06844120887894    2.76386821573550   18.69035556527572
C         3.39976792036848    2.75065175792797   19.06711068385373
C         4.34572216915604    2.14025128302882   18.25870783621039
C         2.63040820579324    1.54172967407586   16.68565962202710
C         3.95947785831341    1.53203944275066   17.07481226577337
S        -1.20628795142855   -0.75093992693450   17.21590961731870
O         0.17610445613514   -0.46812384370611   16.75683314714243
O        -1.39939122514718   -2.07899605097514   17.71486213093093
O        -2.20927558550611   -0.25252931288976   16.28371055759944
H        -2.36628659322748   -1.02356951905147   19.84590287468995
H        -2.81672236148830    0.65466257051266   21.65122143505691
H        -2.13213005553683    3.00123556359392   21.31323429269600
H        -0.99386151993849    3.67777946205291   19.24540256550763
H        -2.45459444110569    3.10127209122254   16.00060480034527
H        -3.46159660355945    5.35325857013293   15.69977828016878
H        -2.13799180557080    7.36577050995907   16.23779203816386
H         0.17624224493690    7.14014972436942   17.04695570440890
H         1.16996962525730    4.90476295110344   17.35555738517316
H         1.33003121258801    3.22230965134089   19.33266055038189
H         3.69850167675286    3.21099381776627   19.99763635596739
H         5.38261751187997    2.12848113620301   18.56086685815208
H         2.32096488530391    1.02579202277723   15.77408883613566
H         4.69349068367417    1.03952325706549   16.45511183755603

