45
CSD_code = NAPQOK | q = 1 | S = 0 | Stoichiometry = C15H25ClN2ORh(1+) | MND = 8
Rh       -2.47804684385122    5.76839172213123   31.43436329379287
Cl       -1.06418488649260    7.36247988263123   32.16829741972542
N        -3.39332789910423    7.43662590896209   30.20049438179736
H        -4.18863215319550    7.01213826062811   29.72401670258434
N        -0.16415439796763    7.47639219828952   28.43850967680507
H         0.66901523947919    6.90773754569676   28.40147344030151
H        -0.13063068851076    8.40246508819946   28.04866734970155
O        -1.22450409364064    5.90082762328142   29.61813440858320
C        -3.86723366533630    8.60650683841766   30.98012417251350
H        -3.32210847994487    8.63815146945302   31.92713174472269
H        -4.93592287045988    8.52875651208442   31.17774979367109
C        -3.49482569341847    9.82847463501199   30.14560195390071
H        -4.22676168354352   10.00416561552666   29.35539680137119
H        -3.41085060496214   10.72693607983582   30.75001859966576
C        -2.15900596525123    9.39221858815905   29.55271160265583
H        -1.38450624523773    9.43595428826632   30.31859872874561
H        -1.86593420513672    9.99209620438627   28.69459433824444
C        -2.43811633089973    7.93064181273646   29.17870565292641
H        -2.89916315417718    7.88473735647261   28.18155179849222
C        -1.21193365643246    7.02740109213486   29.12147615618919
C        -3.25732436631663    3.70455430036494   31.28988799682117
C        -2.10992142909940    3.78860162705630   32.17829148482913
C        -2.45849512623425    4.62482153728194   33.28492265223136
C        -3.76050547522001    5.16788385466051   33.01580746255508
C        -4.26982980274945    4.53877714003365   31.80641884941282
C        -3.33960667480253    2.79131115743425   30.11555405992717
H        -3.38514643263483    1.75986316500112   30.46684482518747
H        -2.45837046385373    2.88901647408805   29.48401611190976
H        -4.22396758535353    2.98859871147047   29.51635935809762
C        -0.87392749339332    2.97192974561845   32.03388482882958
H        -1.06409192969366    1.96694986768531   32.41466755229516
H        -0.04723492713840    3.40048666628235   32.59484477868832
H        -0.58302602339871    2.88831359610283   30.98872217255232
C        -1.66996814072483    4.84213972648511   34.52845903618837
H        -2.06269335126951    4.18996927367473   35.31007181901055
H        -1.75037031736269    5.87046977952993   34.87369715131508
H        -0.61946629733364    4.60781619710142   34.38014658527315
C        -4.54852560300991    6.00234285183984   33.96757996984566
H        -4.98427246517892    5.35475521803163   34.72985624781724
H        -5.35679358089883    6.53032882911138   33.46852829003128
H        -3.91141113355252    6.72734550819071   34.46913577328996
C        -5.66500206022814    4.67188304168484   31.29661392246359
H        -6.29157648801749    3.93129767240112   31.79609448122895
H        -5.72194700991334    4.48953315221293   30.22605635063446
H        -6.07919754454493    5.65381218437575   31.51342022318144

