48
CSD_code = NAPQAW | q = 0 | S = 0 | Stoichiometry = C16H26Cl2IrNO2 | MND = 8
Ir        4.05844240289973    9.81649926555971    7.67139916469951
Cl        1.84933026582362    9.08107419751922    7.98990272603943
Cl        3.30060129968887   11.90183913098411    6.96473825053237
O         2.39651425844889    6.98204149187721    5.63204331349060
O         0.42959274981144    8.04879328813927    5.38988068049735
N         3.77660894510336    9.27077008207659    5.55626767036114
H         4.01879552885586    8.26952350796025    5.55633539240444
C         4.75030972550989    9.83645210716525    9.72692521885534
C         4.84616231286154    8.46565616570187    9.27871086232944
C         5.74785193165246    8.42492167513934    8.19230558261003
C         6.27086382927606    9.75867197528406    7.98606909000880
C         5.69467962462583   10.60976837732854    8.97024915600827
C         4.03660758547508   10.27940776469864   10.96259713766533
H         3.82109463176899   11.34424422284927   10.92544810000253
H         4.65622641919090   10.08191094866554   11.83966970888516
H         3.09878494054509    9.74033233766188   11.07341119797067
C         4.14971340003103    7.31337198506161    9.91874372911851
H         4.43202924726541    6.37592740096449    9.44812205296168
H         3.06951927149350    7.43051364892772    9.83127867668101
H         4.40148027611143    7.27019139746991   10.97840093593610
C         6.16914649483861    7.18838252582206    7.46512607818195
H         5.31149811261217    6.54987951881792    7.25927927388202
H         6.87565786438742    6.62174575518937    8.07395408691489
H         6.65479071674449    7.42854683669693    6.52191870016272
C         7.40671667239527   10.13991339890322    7.09143115460134
H         8.31835194948414   10.24982011105074    7.68123660510599
H         7.20972590298177   11.08944119813684    6.59696381816328
H         7.58718417637163    9.38367398614035    6.33126469046253
C         6.06501571116401   12.03024515976842    9.23267838512755
H         6.51408441684750   12.48510348237529    8.35420252139740
H         6.78120931398045   12.07377487189371   10.05508251951997
H         5.19025600658665   12.61379541107997    9.50908730422861
C         2.40582275069815    9.29337865810811    5.01498080131653
H         1.84299927183802   10.13313917410605    5.42718579526517
C         2.53933577573064    9.41960891857713    3.47757609219548
H         2.04935672936383    8.59306514744405    2.96514073702710
H         2.07804559616431   10.34785899141845    3.14700203829718
C         4.04883926119459    9.44054989432437    3.22197707895067
H         4.31969147253153   10.08260420568302    2.38730758584603
H         4.41752864294822    8.43312339464803    3.02047938644733
C         4.60463265650424    9.94408431802094    4.55170802115693
H         5.65893130259638    9.71345977902690    4.69694248996288
H         4.44880335318983   11.02055619170473    4.65521830419894
C         1.74694520979041    7.98055248132879    5.42201676453507
C        -0.27413713016250    6.90528462369171    5.85829631384663
H         0.11947489801073    5.99814219551062    5.39526060785789
H        -1.31669729090272    7.05696115621368    5.59230868629787
H        -0.16021848432605    6.83759764328452    6.94177551199369

