78
CSD_code = NAPROO | q = 0 | S = 0 | Stoichiometry = C38H34Cl2NiP2Si | MND = 4
Ni        7.80131783514910    6.05821161381235    0.16246072298537
Cl        7.52198139009843    7.77095124275254    1.35281063707519
Cl        7.80800991274836    7.02468789524810   -1.70199019793530
P         7.77126140949459    4.27649308853644   -1.00690971882390
P         8.08168384634908    5.18823130935648    2.09243023560405
Si        7.90157120852293    2.16558721364897    1.30348061255147
C         9.47592392498869    3.71500186700931   -1.28569764353571
C         6.46435312902982    4.83368021903447    2.83426574139668
C         6.97608679170891    2.80254515382369   -0.24078710562721
H         6.88970240726120    2.02041595228485   -0.99639564708138
H         5.96816875323815    3.11691526102066    0.03423818077787
C        10.50547116921860    4.52708713946476   -0.82361474613406
H        10.25506334869746    5.48465437477199   -0.36375390670252
C         6.66302291143806    1.44175536628081    2.54711748435001
C        12.11342253845302    2.91952827087043   -1.57118034813766
H        13.14082013851533    2.60573584379268   -1.68218101426175
C         5.29470916961272    1.36404895903069    2.31097901610358
H         4.88957131553723    1.72117425605417    1.37604243860788
C         7.03490517628199    4.23633249120752   -2.66855843497383
C         3.95275922140187    4.21701962659451    3.82494786483510
H         2.97468526749489    3.97744582420760    4.21505354763802
C         5.65805869998879    4.09985811327971   -2.80819160451814
H         5.03330019351224    3.99940525649196   -1.93103516762619
C         8.33274108775742    6.82237492906001    4.34937144444957
H         7.25463708947890    6.88478871959364    4.32261858469442
C         8.89717437221170    3.53383547661270    2.18184011068973
H         9.06288606906032    3.28468696627825    3.23087447639123
H         9.87093748131494    3.64568106626135    1.70305244771728
C         9.00105137147293    6.06441889366786    3.39388246078704
C         5.08228842061055    4.11140669432010   -4.06518678442312
H         4.01171895605631    4.00824302660046   -4.16747269243347
C        11.27751864272799   -0.20109019491692    0.52721661090143
H        12.33972057819350   -0.15848646753131    0.71962653003331
C        10.45454151055121    0.81670474995859    0.97466005018019
H        10.89044660114860    1.64354736053391    1.51497776882139
C        11.09061820689167    2.11334041440856   -2.04629085049081
H        11.32177519350656    1.17342374890484   -2.52509489500578
C         9.37789326269059   -1.32144668374193   -0.40134745160037
H         8.95139583994717   -2.15822584058007   -0.93530832392191
C         7.82502562699120    4.41360085697142   -3.79887763231857
H         8.89002448617990    4.55977759971270   -3.68982449237947
C        10.74208581241496   -1.27127264683424   -0.16742283594611
H        11.38316111366698   -2.06527576976282   -0.52140097741537
C        11.82299340784829    4.13060417692014   -0.96410764987132
H        12.62167489568846    4.76403570557427   -0.60636037455984
C        10.39120700030937    6.02993237216356    3.39530764290784
H        10.91949787079318    5.47235033971422    2.63356914892975
C         5.87538502769449    4.26590647684975   -5.18974414161799
H         5.42429833758033    4.27863943105849   -6.17092020012868
C         9.77310717618517    2.50693499454220   -1.90638189901533
H         8.97630824511193    1.88218258432014   -2.28363314963481
C         9.08450752846920    0.79280418548119    0.73638775874817
C         5.32953445975889    5.10240236785914    2.07886062655858
H         5.44507875332771    5.57965687431554    1.10483597523665
C         6.33642408083492    4.25784837916765    4.09354478046754
H         7.21672800815643    4.05957294380862    4.68861902583361
C         6.28858310445375    0.42379308701872    4.70916991052938
H         6.68290167443988    0.05247695464922    5.64405394898690
C         7.14227901239075    0.95098385807788    3.75937322206113
H         8.20462401268848    0.97979411405096    3.95535124330137
C         4.43315507762909    0.83718763024578    3.25621649772821
H         3.37334438708047    0.79130604125589    3.05192589596660
C         4.07497293346138    4.79329160205038    2.57150164212777
H         3.19375940467353    5.00688172264657    1.98433782773221
C        10.43311703973607    7.45647253700786    5.32168482290334
H        10.98997488641947    7.99849345712680    6.07170103541946
C         4.92698945729692    0.37058162399227    4.46135100002430
H         4.25557972531374   -0.03757085397482    5.20244622620669
C        11.10323277686493    6.72196035197129    4.35808077325165
H        12.18331368185343    6.69420679065981    4.35190553276917
C         5.08136548540650    3.95529942407791    4.58582502782137
H         4.98096671904322    3.51129307543530    5.56509282748560
C         7.24522436344014    4.42066650167015   -5.05351714963303
H         7.86331611015116    4.55791498136947   -5.92851995994050
C         9.04859685212385    7.50808596664739    5.31242766087453
H         8.52461226605776    8.09413737680086    6.05299845595386
C         8.56298583787538   -0.30053888817853    0.04962776762331
H         7.49806891821528   -0.35028742449402   -0.12803624833953

