47
CSD_code = NAPRIH | q = 0 | S = 0 | Stoichiometry = C24H12N6NiO2S2 | MND = 6
Ni        0.00138170157203    4.13536202322252    4.16727100251919
S        -1.00632269260011    2.13920681715373    7.83292459150940
O         3.38737070279233    5.86561928136269   -0.50724261541357
N         2.33977065025656    4.13137301997501    3.80816670406330
N         0.20658529958208    2.83034972177517    5.45058021918403
N        -0.07577734576940    5.44641553952601    2.73496738599394
C         1.09771632156280    5.41508725650667    2.12876556066931
C        -0.34757989574420    2.53323055069583    6.44905447199302
C         0.35265994167138    6.53556396905207    0.15902739535975
H         0.49518969793308    6.92341586907904   -0.83773404995033
C        -1.05825000016993    6.05521774647639    2.06495023513013
H        -2.02526686944123    6.08066307777144    2.54890924265336
C         3.47520198324534    3.47542007210035    4.04554732446790
H         3.52851673329862    2.96133261104146    4.99512272542070
C         1.37416518500124    5.91651178645777    0.85032407629963
C        -0.88162034079978    6.61048254985940    0.80709431944787
H        -1.72059671295611    7.08000437154428    0.31786273878841
C         4.45829106845356    4.09328273382153    1.92228002008371
H         5.26575848056848    4.06268719581701    1.20680010003020
C         4.53123472219834    3.42272409160302    3.14245930491225
H         5.41160520168792    2.85106804983077    3.39120520644143
C         2.79207290829425    5.56668132303385    0.49319978934738
C         2.27993128526277    4.74085455303058    2.63917010565001
C         3.28637643782018    4.78128125770905    1.66528483428512
S         1.00722380948147    2.14310276583391    0.49659548167005
O        -3.39222724001254    5.87311905143442    8.83588827370752
N        -2.33683473705586    4.12949705204258    4.52617751804627
N        -0.20371125111828    2.83364782913206    2.87994417660638
N         0.07793513206175    5.44317772291826    5.60253125508728
C        -1.09682568613702    5.41393714558824    6.20636317292437
C         0.35095088692099    2.53644123491350    1.88180945665172
C        -0.35518660570704    6.53807437951893    8.17531442076522
H        -0.49966432443522    6.92856109994992    9.17077284099526
C         1.05955486014192    6.05223944739325    6.27356355506553
H         2.02763579491320    6.07578561779984    5.79164151148238
C        -3.47271797186752    3.47495799075904    4.28704905317303
H        -3.52449509144342    2.95953027126465    3.33811450159330
C        -1.37567421478966    5.91840672663335    7.48310542712956
C         0.88067502226521    6.61022241326139    7.52990308131183
H         1.71900056995410    7.08001726144594    8.01999681965574
C        -4.46011057457347    4.09815185022047    6.40678989323466
H        -5.26962591947638    4.07043273088947    7.12007443664297
C        -4.53109104922612    3.42560167246857    5.18755332678403
H        -5.41188530100022    2.85517938664996    4.93748354704898
C        -2.79497748453858    5.57134344837973    7.83746194311933
C        -2.27874852039375    4.74044875725429    5.69446353028843
C        -3.28761456767841    4.78438867580914    6.66571208813954

