55
CSD_code = NAPSOM | q = 0 | S = 0 | Stoichiometry = C22H20Cl2N6NiO4 | MND = 4
Ni        0.43387147574440    1.78850974797288   -3.69335742894191
Cl        3.91196294465199   -1.27461904151590   -6.77357724784771
O         4.58192482404067    1.23280711749354   -4.80727647268917
O         2.88072606267428    1.97879809041375   -3.53142521956459
N         0.44008354957805   -0.55353099893178   -5.53354255037477
N         1.32027787913680   -1.23479586916682   -6.28943010847851
N         0.72258651083663    3.25529655763824   -4.98985578999010
C         1.00592604896614    0.40084809139742   -4.78323576611318
C         2.49972588218220   -0.71502005562149   -6.02519101351419
C         2.39042312274194    0.32490616633681   -5.07218017906690
C        -0.94669216301763   -0.92519416767106   -5.58804803067964
C         3.41440591438600    1.17585122450741   -4.51258236910893
C         3.78164704602527    2.88118504940472   -2.91646478363011
C         1.11578618219836    3.18620374078719   -6.25365192186685
C         1.50066704556698    4.29800695700014   -6.98763281487714
C         1.48225495915122    5.53734934313397   -6.37085398862559
C         1.05500060233146    5.61775098548202   -5.05697127212866
C         0.66875771056764    4.45590190181676   -4.39181701653605
H        -1.56044045614422   -0.04562255217504   -5.40294566338246
H        -1.15400955455481   -1.33707563240398   -6.57358259235003
H        -1.16957474311389   -1.68210535696367   -4.83301663304966
H         4.75220118052893    2.40048755608543   -2.77284914667717
H         3.92097874871891    3.76877180074514   -3.54147453870017
H         3.34846129048504    3.16322901189780   -1.95839986709220
H         1.13411445765272    2.20384354138866   -6.70547626984034
H         1.81833747060610    4.18538413531438   -8.01133508553857
H         1.79524566457513    6.42514095564615   -6.89916941193478
H         1.04355944991753    6.57066060581436   -4.55316834320943
C         0.19898202661009    4.45590044731490   -2.99489244096178
N         0.14515999080782    3.25529431396451   -2.39685411685859
C        -0.13818001298954    0.40085751274269   -2.60346500099508
N         0.42766395498216   -0.55352664588473   -1.85316530370268
N        -0.45252771525359   -1.23478693248941   -1.09727115524498
C        -1.63196559745639   -0.71495924409126   -1.36145334274988
Cl       -3.04421049928242   -1.27460282918706   -0.61311080546214
C        -1.52268135177482    0.32489054105352   -2.31454259777345
C        -2.54668881703293    1.17574837151981   -2.87422591383598
O        -3.71417920712146    1.23279750116279   -2.57944216520559
O        -2.01298142875631    1.97878910686698   -3.85529352042169
C        -2.91389327339030    2.88120725012843   -4.47022209299031
H        -3.88441978313686    2.40051234105128   -4.61390624239617
H        -3.05327035477907    3.76874791505441   -3.84518846251897
H        -2.48068985584026    3.16330627194508   -5.42824104368214
C         1.81443641888395   -0.92520423196160   -1.79867732842435
H         2.42818253328530   -0.04565293686113   -1.98380182490315
H         2.02176861311350   -1.33705903258562   -0.81315128378521
H         2.03731147459783   -1.68212396516961   -2.55368291355019
C        -0.24803628637106    3.18619895608883   -1.13305679532503
C        -0.63292010409678    4.29800044548827   -0.39907410383702
C        -0.61451682423146    5.53734317054234   -1.01585316397188
C        -0.18726641979089    5.61774738184927   -2.32973710454479
H        -0.17583409784679    6.57065705401396   -2.83354012619175
H        -0.92751200866000    6.42513298122060   -0.48753730797377
H        -0.95058545140603    4.18537655591358    0.62462976900428
H        -0.26635502949130    2.20383879448343   -0.68123208588731

