56
CSD_code = NAPZOU | q = 1 | S = 0 | Stoichiometry = C27H19N6O3Ru(1+) | MND = 6
Ru        2.12815646880571    0.29638332979191   13.12081716766579
O         2.91991313809969   -0.01846499539255   15.63690847966166
O         4.43940291202154    0.87975379786122   14.39401993711193
O         0.44117326074248   -3.46367108726167   12.69070994839568
N         1.65768856077428   -1.71853555790637   13.39533411403760
N         0.61734498982574   -0.05330036745235   11.55100556279341
N         0.70579082330629    1.16103661212035   14.31859271782630
N         2.47736219256426    2.11439835428043   12.74229270220859
N         3.68371091949667    0.04997270489598   11.85195136479880
N         3.33034263238484    0.40263518555229   14.56892589625788
C         1.24232443669730   -3.90499226568047   13.69781467665269
C         1.35006705589460   -5.17397660690558   14.23746586350839
C         2.26626069495267   -5.32746718871815   15.26058493620835
C         3.03745983059334   -4.25823143986217   15.72368679931316
C         2.93253880897547   -2.99187556939437   15.18748046503459
C         2.01529487282741   -2.81547752292881   14.15417896035811
C         0.73718716349137   -2.16010905196265   12.55736824284018
C         0.11995790085456   -1.30789471460563   11.57785087988277
C        -0.90515462852893   -1.73103084193177   10.72933241954673
C        -1.43209036629966   -0.82593830459117    9.82966151311377
C        -0.92270752174549    0.46873291064704    9.80698012817283
C         0.09591694115462    0.80605027518611   10.68131812165243
C        -0.12872604968014    0.57318316682757   15.16604720696074
C        -1.00534348572577    1.28218741988595   15.97081033685172
C        -1.01231589548794    2.66654107567895   15.89038423368693
C        -0.13506760919266    3.28841128298941   15.01821674071737
C         0.72505995934863    2.51403733489761   14.24469290706303
C         1.73736046031930    3.06736907825653   13.33635641276930
C         2.00211388777682    4.41133540919477   13.09853679215941
C         3.05104760773310    4.74679721178924   12.25130990870494
C         3.81855543411094    3.75068480803087   11.66912337719499
C         3.50902671387021    2.41853681432040   11.93745981092857
C         4.20739583971636    1.23254039955332   11.44202667648255
C         5.33560154152436    1.27881202332755   10.62593308071262
C         5.94458204777318    0.10102923708924   10.23516826067861
C         5.40365456287122   -1.10271523724791   10.66665838824918
C         4.27764769622356   -1.07667082185851   11.46906364603742
H        -1.30781594522013    1.20301098027552    9.11857969266355
H         3.51502700883734   -2.16903212890963   15.56597510059460
H         0.51601295552815    1.80483436727379   10.68026257638835
H        -0.08097928146461   -0.50781678672064   15.21302660827540
H        -1.26175688386574   -2.74619839970759   10.79429371749390
H         4.64579155023848    4.00699485514570   11.02909414292958
H        -2.22398689507441   -1.11672925966416    9.15780804976641
H         5.73830744538149    2.22858189969140   10.31545170064633
H         2.38761413856498   -6.29801435035287   15.71510210521340
H         5.85198869826882   -2.04447330256380   10.39588769780364
H         3.83877002626776   -1.99963456537396   11.83107987561926
H         6.82653686965677    0.11875263067957    9.61503208423052
H        -0.10757936909735    4.36324332755291   14.94810958096493
H         1.41796237456629    5.18337449158517   13.57043630750923
H         3.73589524686205   -4.42976862907877   16.52739800664938
H         3.27629391632986    5.78348817512891   12.05968481726633
H        -1.67900759129674    3.25206384050819   16.50344064690217
H        -1.65909151452908    0.75925314947710   16.64909255868330
H         0.74878345197765   -5.99000715342346   13.87337605416138

