61
CSD_code = NAQDOB | q = 1 | S = 0 | Stoichiometry = C26H32ClPRh(1+) | MND = 9
C         3.20751337454933    3.57351624636481    4.67670530140757
C         2.00699895228009    3.30389052610054    3.92145971029482
C         1.19598859789944    2.38976580094070    4.69074825294795
C         1.92848678869134    2.02241893817235    5.85262324924133
C         3.16230637113415    2.77698713744454    5.85351707022973
C         4.17762789546340    4.67905288169858    4.42368109601046
H         3.86542686025000    5.55605065241338    4.99357954993337
H         4.21110521411280    4.95305594586945    3.37309832448774
H         5.18130959903269    4.41228535842023    4.74628564801139
C         1.54098893954550    4.13151574868897    2.76965658965434
H         0.77555653158963    3.62843556921055    2.18587996014386
H         2.36566189532358    4.39463965240405    2.11072361902933
H         1.11534601572165    5.05667356525399    3.16289723726175
C        -0.20455789193770    1.97188468448033    4.40046641043691
H        -0.84889910439616    2.30998607099158    5.21261614377816
H        -0.29007867312179    0.88695535262833    4.34126184794002
H        -0.56586842292953    2.40092061169522    3.47029832130511
C         1.37233998201399    1.21597872171785    6.97991097986883
H         2.15311470721126    0.83120559651298    7.63029646820691
H         0.78792111316209    0.37849305512823    6.60533288518334
H         0.71243143901535    1.84651946250922    7.57841235834981
C         4.11674440098507    2.90741326883866    6.99180333194661
H         3.94074933939788    3.86930016745614    7.47676365673594
H         5.15238565223117    2.89660399604118    6.65616524298744
H         3.97470273085186    2.12870699498480    7.73624333389607
C         4.23396414602724   -0.14524370582131    5.31606224516901
H         3.66725484830226   -1.06827843005347    5.28466121779331
H         4.38908668914998    0.27875491135343    6.30000656479939
C         5.07624034468253    0.17347094381121    4.28006777140505
H         5.87411268645506    0.89656248178110    4.44843890893665
C         5.26354830883613   -0.72685391809638    3.08973204602192
H         6.23002984324025   -1.22944239899283    3.18880890401965
H         4.48464292133225   -1.48946985804634    3.08956667445052
C         5.22023780237815    0.05484764839548    1.77500671122153
H         4.93913403038900   -0.60091652701458    0.94850420849170
H         6.19113588378426    0.50339592346272    1.54874993243648
C         4.94285809205032    2.91454301258885    1.49356628277832
C         6.15350306838400    3.15438081392128    2.14032080721589
H         6.53061042592917    2.44032787044598    2.85920681356540
C         6.88178853340718    4.29565016216261    1.86216898974432
H         7.82530731173995    4.46635254727758    2.35789429179199
C         6.40075090262639    5.22030817057300    0.94809577919811
H         6.96929208014773    6.11084350531065    0.73083773318999
C         5.18943300761586    4.99798257323939    0.31415005512292
H         4.81145663148842    5.71551871958996   -0.39799623152379
C         4.45893651055283    3.85412245899737    0.58669759087327
H         3.52222897527143    3.67960966891085    0.07630565850887
C         2.91117825543517    1.23738026857026    0.46016062880472
C         3.53919776853154    1.05396893248446   -0.77116122524607
H         4.61909402539219    1.02443092557091   -0.82867025810893
C         2.77984800475292    0.92198015159644   -1.91806970787012
H         3.26766774353699    0.77399613106875   -2.86935812777222
C         1.39620252070423    0.97882625473606   -1.84662500362561
H         0.80636151400444    0.87117640684000   -2.74359165916462
C         0.77204034612914    1.17250971597224   -0.62589231696509
H        -0.30504750294130    1.21568802088134   -0.57041671037961
C         1.52634402513297    1.30414856802922    0.52721378886363
H         1.04199787325716    1.42997854811044    1.48382732421438
P         3.97824035361346    1.42458065122704    1.91629492589709
Rh        3.12747996600130    1.43081362154670    4.06148237415798
Cl        2.08113975458153   -0.41190077639976    3.12122642269952

