57
CSD_code = NAQDUH | q = 0 | S = 0 | Stoichiometry = C19H34Cl2PRh | MND = 8
C         5.38965953605974    6.74424035468088    9.00831700358731
C         5.75980161345610    5.67779034370017    9.90695873857253
C         4.99939031410772    4.52856609033169    9.55561863137933
C         4.15283595237807    4.87579649783440    8.43971891418897
C         4.44436730191591    6.21691963450472    8.06905649220846
C         6.12360410824970    8.03543918669095    8.80800607142334
H         6.71542764667422    7.97050969563074    7.89211164874894
H         6.80493284549430    8.24072774678120    9.62949363470108
H         5.43643699877663    8.87318385409145    8.70388099174815
C         6.91843478707446    5.69645539144110   10.85525143675269
H         6.76468175495497    5.00847808393127   11.68317535140388
H         7.09095495655018    6.69014662480652   11.26162790821740
H         7.81959074845484    5.38882941992999   10.32009031639971
C         5.14257061073882    3.13963095874941   10.08905705857955
H         5.50402819674170    2.48628382623533    9.29358248239119
H         4.18022477966265    2.75515826887197   10.42744021642701
H         5.84622596002996    3.10007037838983   10.91673093867127
C         3.30833499967329    3.90386333595201    7.67756582096679
H         2.55672899480898    4.42334426962598    7.08792676175733
H         2.79959932599379    3.22418621715440    8.35854227463623
H         3.93836382903782    3.31379681239836    7.00794118339259
C         3.92002695031272    6.93386478865922    6.86753524148271
H         3.75420688718600    6.22940021110833    6.05467571198656
H         4.62781874799462    7.69337129259831    6.54229308378632
H         2.97142459237075    7.42631969782127    7.08967949251949
C         1.59692100521406    7.13931158248461   12.81841463684191
H         0.96593134974884    7.14064723153999   11.92638535929831
H         1.46733263511310    6.17259064042750   13.31401863451917
C         1.20072785283240    8.25959265388461   13.71725144584365
H         1.61688335891904    8.26109326840666   14.71602987621298
C         0.34513519611718    9.20324848481406   13.36409805739106
H        -0.10317822909997    9.21900792912181   12.38445785339934
H         0.05236742474754    9.99051457840512   14.03821794310327
C         3.82901873115424    8.94281325054832   12.37839595779406
H         3.40356901115571    9.28842639372634   13.32726984603108
C         3.20353627654999    9.74763417705859   11.24654521166184
H         3.42773782421974   10.80673349604464   11.36615979679907
H         2.12480011917526    9.61876593458090   11.23267529844953
H         3.59044771313205    9.41263583302554   10.28614093970247
C         5.34089597199108    9.13292389393508   12.39172828784913
H         5.78185306493691    8.63944655245910   11.52957811655214
H         5.79475491508479    8.73693872348930   13.29709033767911
H         5.57944031476305   10.19406638203711   12.33375171351730
C         4.34134649892780    6.32527952068781   13.55268856371094
H         5.38585723701345    6.52926801379607   13.28818435223078
C         4.13708448659211    4.81439970828655   13.52992137298812
H         4.80810364217848    4.33390670419651   14.24111413483363
H         4.33034245384263    4.41439504517071   12.53740029067999
H         3.11473066037206    4.55422805786049   13.79374325420004
C         4.06880477045920    6.87000369901474   14.95094392299689
H         3.06989105198388    6.59510029723131   15.27958446280820
H         4.17264508276602    7.95118134009078   14.99738031191311
H         4.77950539057851    6.43387308372303   15.65267570465075
Cl        2.03838404320237    4.58626635194652   10.98332935510961
Cl        1.78225822336821    7.41317475001858    9.46532734177418
P         3.34560314528980    7.14619788188569   12.19703029186179
Rh        3.57539633904602    6.12326155824992   10.14888992166209

