101
CSD_code = NAQDEP | q = 0 | S = 0 | Stoichiometry = C42H48F6N2O2Pd | MND = 4
Pd        0.00003346887584    4.08833414689205    0.00003326655339
O        -1.54579250982640    3.00064718945239    0.55518009778913
C        -2.33323474895155    3.63585671967471    1.36751804101130
C        -3.57329391612098    3.13380762029694    1.83878535799632
C        -4.25647797515162    3.88163202831297    2.77450658312535
H        -5.20209446729090    3.51174218901964    3.12502002595434
C        -3.78266912503551    5.09054753538439    3.31177083334604
C        -2.57388125657938    5.57926079660070    2.86533222157797
H        -2.15721300701976    6.49448462688366    3.25767594805034
C        -1.86245220800197    4.88898413770415    1.87923362631155
N        -0.63930416673160    5.22191263152339    1.40386903992341
C         0.19577637735668    6.14884119972330    2.00452057429691
C         1.36401386218463    5.69542298143525    2.64815147612770
C         2.26722140789963    6.59995057103582    3.19105565386629
H         3.16231322235644    6.23457529381484    3.67083851412254
C         2.01704315789909    7.95745549387928    3.11526865187279
H         2.72318800164811    8.65663735398758    3.53400982836407
C         0.86303678906079    8.41453872239164    2.49618675587780
H         0.67063518444249    9.47513464011540    2.43278987271154
C        -0.04073779367117    7.52475322075109    1.95196725087193
H        -0.92822839092578    7.87441770766971    1.44547411933037
C        -4.09554045542659    1.80773553831668    1.30633406673493
C        -4.23851528700970    1.90948236363644   -0.21757287419345
H        -3.27363523273448    2.11967721627881   -0.66621911953960
H        -4.92910596211338    2.70814111079818   -0.48050652170989
H        -4.61347069939829    0.97271895048516   -0.62522516524717
C        -3.08612914325398    0.70526451443383    1.65519650457306
H        -2.97450013200847    0.62513023297128    2.73452721545828
H        -2.11621071475476    0.93103413444316    1.22212286039980
H        -3.42760700765678   -0.25227290406111    1.26695145308927
C        -5.45583264918009    1.42088096995523    1.89314466037057
H        -5.39959523108588    1.30094533823761    2.97251535858578
H        -5.77051875361953    0.47045712377318    1.46674384782293
H        -6.21344290226867    2.16333056962626    1.65318208025736
C        -4.55098062960943    5.86672622385085    4.37221880756576
C        -5.88017305033541    5.20904934515099    4.75300998608273
H        -6.54198750650401    5.13607913708061    3.89335517371486
H        -6.37788205670443    5.81377561518542    5.50867511635494
H        -5.72215642509226    4.21735074423788    5.16983204781264
C        -3.68765762538239    5.96322253773871    5.63851014338392
H        -2.75406909197894    6.48284259542860    5.44193811554143
H        -3.45129705020332    4.96754915256999    6.00732161986765
H        -4.22223748058936    6.50330215938937    6.41723079812340
C        -4.85320610546420    7.27583142422003    3.84226218079520
H        -5.43660361278163    7.21449854997035    2.92619966509286
H        -3.93915993911506    7.82233779158500    3.62860980364542
H        -5.42278265644180    7.83939215115625    4.57834158391645
C         1.65373765584872    4.22319609537486    2.73045261101552
F         0.55597273813230    3.45089217455839    2.88203493068676
F         2.25800495246248    3.71772208185274    1.61678193943308
F         2.46822927272271    3.91296732678455    3.74756708017828
O         1.54584398153645    5.17603035408024   -0.55513305953065
C         2.33327793439707    4.54083198977906   -1.36748097501267
C         3.57332818644664    5.04289378427231   -1.83876424444535
C         4.25650740487965    4.29508061428859   -2.77449945128142
H         5.20213330778854    4.66495909081287   -3.12500556013604
C         3.78267322562328    3.08618060997258   -3.31178473801282
C         2.57388854468190    2.59747151836916   -2.86534078603172
H         2.15719131422437    1.68227295227016   -3.25771142300985
C         1.86248948523464    3.28771363142555   -1.87919825845622
N         0.63935458642203    2.95475898746986   -1.40382288158858
C        -0.19570619747815    2.02782752366619   -2.00450073638973
C        -1.36394638314221    2.48123733299230   -2.64813792595801
C        -2.26717918028191    1.57670216685781   -3.19098798708000
H        -3.16228292844134    1.94206690442091   -3.67075583397160
C        -2.01699998238184    0.21919833958849   -3.11517671421019
H        -2.72317827801365   -0.47999322754368   -3.53384326053898
C        -0.86295170798220   -0.23787260959992   -2.49616498796071
H        -0.67054481295220   -1.29846731962943   -2.43276418199225
C         0.04083635684804    0.65191974295635   -1.95197769114651
H         0.92834503193047    0.30226291214787   -1.44551340426888
C         4.09553150451053    6.36899316526551   -1.30633216106684
C         4.23850678225019    6.26728793154265    0.21757959186540
H         3.27363675820553    6.05707815068513    0.66624441282560
H         4.92912728306080    5.46865823090975    0.48052494805268
H         4.61344154606130    7.20407160947310    0.62520514754992
C         3.08606601952510    7.47141470043847   -1.65519973371525
H         2.97441841462485    7.55149844838903   -2.73453117128135
H         2.11616168226771    7.24561957180320   -1.22211077709545
H         3.42750387848661    8.42898433000991   -1.26699623125218
C         5.45580192533249    6.75589755731506   -1.89315821590430
H         5.39954835194343    6.87583222404469   -2.97252752152721
H         5.77045376223168    7.70633342617526   -1.46675899048077
H         6.21344655132852    6.01348056394681   -1.65320411401484
C         4.55094153368605    2.30997941755075   -4.37224622428278
C         5.88011539051155    2.96765279518438   -4.75310155724414
H         6.54195662751843    3.04066774303231   -3.89347052283416
H         6.37780591034574    2.36289456471419   -5.50875315952236
H         5.72207580867889    3.95933222406092   -5.16996321219133
C         3.68756543869185    2.21345614788997   -5.63850079110232
H         2.75398857673391    1.69383236015385   -5.44188250414763
H         3.45118218400379    3.20911915417196   -6.00732928372747
H         4.22211755036485    1.67335919399330   -6.41722758296944
C         4.85317918175174    0.90089058146309   -3.84224510033595
H         5.43658648604926    0.96224823741155   -2.92618942951449
H         3.93913245775864    0.35439428826996   -3.62856681543780
H         5.42274324033863    0.33730499020878   -4.57831371701218
C        -1.65365790469224    3.95346309793156   -2.73050007745528
F        -0.55589261490864    4.72577080964862   -2.88203546697375
F        -2.25801408589412    4.45895821207126   -1.61688761940683
F        -2.46807925497957    4.26365390209393   -3.74768172765474

