89
CSD_code = NAQFOD | q = 1 | S = 0 | Stoichiometry = C40H45ClP2Rh(1+) | MND = 8
C        -0.05125666940762    5.64378686820400    4.15832395434275
C         0.16281653114185    5.11442427951843    5.48616688531302
C         1.56648022868389    5.09289835581130    5.72822157968327
C         2.23027121323721    5.52407753459144    4.52610587991389
C         1.21811772248947    5.92672473260329    3.58389396209446
C        -1.38292903218082    6.06147695619779    3.63019117457383
H        -1.32234264217146    6.34501336838065    2.58307486314083
H        -1.73410410810215    6.92142639275495    4.20332137930211
H        -2.11974002826323    5.26753937071402    3.74278161266884
C        -0.94059515328674    4.89987739407919    6.46971469765926
H        -0.58728111300621    4.42510412110897    7.38091723374377
H        -1.72913036367221    4.28300144824200    6.04082213736056
H        -1.37773268552365    5.86510087400249    6.72988839009754
C         2.24915144335411    4.93281963287013    7.04765785409021
H         2.69239460486687    5.89151103539991    7.32129618366110
H         3.05081683927631    4.19579782377758    7.01481439330523
H         1.54591372748763    4.65549271738209    7.82835193425154
C         3.67664307771689    5.89522659615507    4.45252360182860
H         4.09868555968409    5.70206896518799    3.46918016776232
H         4.25807652212658    5.34793415803499    5.18967987904208
H         3.77710931685539    6.96245980091049    4.65990634398206
C         1.44263364920416    6.77254441364466    2.37353079742030
H         0.85399446060762    6.44169801428339    1.52038462453937
H         2.49185129031259    6.79417100683481    2.09305155705892
H         1.13791953695001    7.79335758531705    2.61149464542022
C         1.20822565465870    0.26556116691999    8.74386355218314
H         1.19050437641051    1.15331111311548    9.35607620933900
H         1.32868353110225   -0.66771443291098    9.26523646665047
C         1.08218529032349    0.31467323321374    7.42944047814180
H         1.09324612325531   -0.59575134673076    6.84610470011853
C         0.85110778352331    1.58369191478741    6.67295876679516
H         1.00600230846621    2.44868414409053    7.32265357303404
H        -0.18747263737995    1.60661582010850    6.31853693176630
C         3.59664924162870    2.02675501740555    5.70195338389861
C         4.06103923113434    1.52479313864977    6.91355184705173
H         3.38684325098895    1.01932456893507    7.58693518743357
C         5.39581381684619    1.66903459145470    7.25164866388292
H         5.75016700674214    1.28075110892067    8.19424501799096
C         6.27565778743749    2.30131497482463    6.38781951279752
H         7.31517949500188    2.40599109788117    6.65736082574120
C         5.81831010868035    2.79751052844614    5.17743494485500
H         6.49796147662313    3.28765445446080    4.49649015161402
C         4.48408044679736    2.66554093798224    4.83960003217282
H         4.11715891039369    3.05321557616523    3.89924195343341
C         1.89162228816338    0.16871960902309    4.42166491955573
C         3.08811491524092   -0.42412246382499    4.02688387846879
H         4.02195259893799    0.10511691196042    4.14870511904373
C         3.08407689921644   -1.69846772380946    3.48576439412715
H         4.01630333577243   -2.15289357292880    3.18555808755802
C         1.89339290591663   -2.39035529516125    3.33475700332026
H         1.89524293252522   -3.38449235120900    2.91493541677630
C         0.69961683893092   -1.80470841336020    3.72744767942553
H        -0.23009347059673   -2.34049035100287    3.61330037774954
C         0.69396295829532   -0.53090888154741    4.26608638321418
H        -0.24091787469372   -0.07128952991226    4.54894281445890
C         1.82445517227472   -0.23877902573504   -0.33046256358313
H         2.01313869686587   -0.99416530000425    0.41616319504111
H         2.08887050675490   -0.49159526146059   -1.34201389708571
C         1.27774007005489    0.92353127477247   -0.02429863214796
H         1.07911854565063    1.65498450199315   -0.79642884769386
C         0.85479761166456    1.29761245258317    1.35784750806285
H         1.12469855298667    0.52498635457620    2.07797758245695
H        -0.23292547573200    1.42758667333780    1.39773375062384
C         0.80195052924068    3.96169930169502    0.58452857748581
C        -0.54541252283320    4.28252533564255    0.74159062020995
H        -1.06911684651738    3.95648259213530    1.63030877341025
C        -1.21063191708277    5.00025884756263   -0.23509658570204
H        -2.25493925590776    5.24310293973874   -0.10831921302595
C        -0.53644664918172    5.40111717546312   -1.37807361597399
H        -1.05222646609336    5.96397057911220   -2.14050706973492
C         0.79752295236008    5.06780014802347   -1.54650781410888
H         1.31907508134528    5.36351712478001   -2.44406729897981
C         1.46920046496985    4.34671651145218   -0.57369334125256
H         2.50329749013091    4.07500703870405   -0.72656876120876
C         3.31491477179304    2.84376723840764    1.49171006205163
C         4.01611600222819    4.03270134704524    1.29534978181912
H         3.47677680157266    4.96954841560773    1.29900146854557
C         5.38122036366729    4.01338288347079    1.07924689195331
H         5.91493367902001    4.93806877472498    0.91643008167651
C         6.06304558555498    2.80650918523564    1.07237385425783
H         7.12895860874753    2.79040346560888    0.90523431865517
C         5.37400230034700    1.62304751089195    1.28026513501321
H         5.90379009158771    0.68268826963886    1.27588923812870
C         4.00687700478746    1.63712490949076    1.49373569394921
H         3.47896955280997    0.71226408247019    1.65995898952565
Cl       -0.89655385349593    2.42281162148571    3.86211130890626
P         1.86980465726575    1.83687929874576    5.14894934561576
P         1.54419361013464    2.92592555909776    1.88898112388017
Rh        1.05240282487279    3.69791918285249    4.02605633395776

