30
CSD_code = NAQMIB | q = 1 | S = 0 | Stoichiometry = C9H15ClN3OPt(1+) | MND = 4
Pt       -1.61520686514014   -1.92205591055892   -0.11370664002975
Cl        0.61971044169903   -1.85476350922805    0.00749730669462
O        -0.79736580017478   -4.81346593216377   -2.94131030090563
N        -1.46412085319161   -3.52830156683399   -1.27769422413829
N        -3.81057755195979   -2.00332024653116   -0.20947935484232
N        -1.57294891358153   -0.25528743369253    1.11356485826081
C        -0.94807918645126   -3.57776860027746   -2.48360206910134
C        -2.12583076122263   -5.39744646598685    0.29961838435246
C        -2.17445183935336   -6.77916220805353    0.38113353764574
C        -1.75553132728512   -7.56486863951764   -0.70571206989393
C        -1.27381055006757   -7.02677546466771   -1.88152081726147
C        -1.22504476044622   -5.64489066203693   -1.94707978494266
C        -1.64740127573733   -4.84132509031275   -0.87900893354551
C        -0.57050197521380   -2.41383795852397   -3.30934938111146
C        -2.66907866387543   -7.45805790320973    1.61743590349131
H        -2.42155761275079   -4.76671775818964    1.12594402178132
H        -1.80743960207736   -8.63805407625122   -0.60723365140001
H        -0.94598849642211   -7.64140059004056   -2.70246058668130
H        -0.78445058154550   -1.49457769096803   -2.76306964574973
H         0.49405003452525   -2.45572651048775   -3.53637038474806
H        -1.10983301789400   -2.42784157358617   -4.25509292909694
H        -2.91895279280262   -6.73867470066499    2.39159285535757
H        -3.55312219701302   -8.05244769793183    1.39244030983135
H        -1.90960402141129   -8.13540254565119    2.00278821581019
H        -4.10750942025465   -2.87525467577206   -0.64264197401267
H        -4.22528140620626   -1.96150673649828    0.71872253341511
H        -4.18860202272218   -1.23666336670220   -0.76194528952051
H        -1.90492964639916   -0.42180127091539    2.06456081326898
H        -2.03177801446249    0.58126962609571    0.75188639932289
H        -0.56446132056176   -0.06287284084013    1.16999289774856

