58
CSD_code = NAQMEX | q = 0 | S = 0 | Stoichiometry = C20H25AuB10ClP | MND = 2
Au        0.20627501932023   -8.49225771314322   -3.40154202971240
P        -0.89657269360816   -6.90892759112392   -4.59180697496939
Cl        1.27830199105196  -10.04843640550662   -2.13107709661379
C         0.10199295978834   -5.73932222932068   -5.63381878542298
C         1.45002391648360   -5.21549058662239   -4.90907162749641
B         0.19622282474263   -4.06620632639913   -5.25270906407834
H        -0.45933975229137   -3.66080670797787   -4.37072069614650
B        -0.48678434661504   -4.60341657976596   -6.78447257948173
H        -1.64844698864218   -4.55030729309593   -6.96068919595061
B         0.38712771379010   -6.02921473190408   -7.32450195787189
H        -0.20563600749088   -6.89999203703986   -7.84322441292307
B         1.60993061395120   -6.42069996624447   -6.12995093419129
H         1.81204277036507   -7.51866173855989   -5.75916090925667
B         1.88307034330642   -3.65537823234887   -5.48183627792715
H         2.39172699404946   -2.92842988857579   -4.71233174745732
B         0.65650456541815   -3.23595207248755   -6.71926437480957
H         0.31285864471463   -2.12854040986044   -6.90682068546061
B         0.78083370517204   -4.45025420031122   -8.02058973198230
H         0.50912918438324   -4.19377341246470   -9.13409960833407
B         2.08736739774254   -5.59608361139892   -7.60298388263584
H         2.73941600290873   -6.14033509775351   -8.41342693633514
B         2.75219287280890   -5.08649375903673   -6.03513114072239
H         3.83998741527590   -5.27599287793528   -5.63853503656273
B         2.25528990304914   -3.85789060171769   -7.21224052621917
H         3.04323217923437   -3.17473279711008   -7.75206966014733
C         1.71365246334295   -5.63241554308658   -3.50083572950015
C         0.97131263118025   -5.14284955720063   -2.42649135439206
H         0.19087211498718   -4.41505441886223   -2.58268803856975
C         1.22377119697497   -5.56387239101914   -1.13230292887924
H         0.62100260920578   -5.17385601180834   -0.32510354924495
C         2.23307847004761   -6.47255651338257   -0.87362099559621
H         2.42066840939079   -6.81016436941366    0.13340920001986
C         3.00055738953449   -6.94643251138665   -1.92332964591346
H         3.79097033935727   -7.65644827538251   -1.73886275243425
C         2.74350492620333   -6.53377596256074   -3.21749956976997
H         3.35282056486660   -6.92271795406454   -4.01782784525313
C        -2.03579982028650   -5.92297161318659   -3.56443100378872
C        -2.79872281950700   -4.85042975259424   -4.02243944380524
H        -2.71871463759375   -4.51790545279251   -5.04589069965734
C        -3.65291466697538   -4.18983404830681   -3.15740574333443
H        -4.23709685168667   -3.35712263989863   -3.52001498437684
C        -3.75990676282974   -4.58937181585472   -1.83507146675234
H        -4.42672638208596   -4.06742351245596   -1.16553643539321
C        -3.00825893269831   -5.65744065736700   -1.37431591928289
H        -3.08560858929036   -5.97465230728737   -0.34546242076461
C        -2.15181661790638   -6.31898779832071   -2.23473956513976
H        -1.55427265471499   -7.14966414062944   -1.87797175454429
C        -1.99600768384172   -7.70206925562849   -5.80956781427203
C        -3.31910184871642   -7.34429220957257   -6.03762466228211
H        -3.77089663582328   -6.53244128856349   -5.48795680913874
C        -4.07486779438603   -8.04394290331494   -6.96299076770152
H        -5.10221808127954   -7.75906339147349   -7.13495146160595
C        -3.52300002114545   -9.10407893636208   -7.66068548295453
H        -4.11709667704459   -9.64420412515969   -8.38205778926089
C        -2.21111876086449   -9.48178785861306   -7.41989167202610
H        -1.78055487041201  -10.31847318090810   -7.94863924739141
C        -1.45575138175513   -8.79146076167422   -6.49306455350266
H        -0.43780585315178   -9.09624197416238   -6.28696122077892

