25
CSD_code = NAQMUN | q = 1 | S = 0 | Stoichiometry = C8H12CuN4(1+) | MND = 4
N        17.42915524395501    2.10024403180099   14.12897190867985
N        16.98493859119630    4.80604246967435   12.45857872737415
N        15.11988514066925    2.22900787641232   11.97729157465341
N        18.15914986080834    2.15742441773897   11.04588844153161
C        18.14937727267719    1.75446952618986   14.95101494608380
C        19.01664133355826    1.31561250682153   15.99191497036195
H        19.33819377269899    0.29329719001697   15.79396929999573
H        18.49317199797249    1.34922997783392   16.94728585030220
H        19.89028224740291    1.96560659988085   16.03755939496600
C        16.97430243067996    5.95058993531638   12.41095664717509
C        16.96372883634006    7.37278011125903   12.35909595150147
H        17.69558161538688    7.77092991863155   13.06186015147643
H        15.97308717157220    7.74238946239717   12.62362928354578
H        17.21467804146859    7.70483381080228   11.35176285334291
C        14.06517730912223    1.84501402183663   12.21048573385343
C        12.74718963175237    1.37047297991894   12.46653944192199
H        12.45903953410720    0.64979083149877   11.70138503673529
H        12.04769072414127    2.20614902397295   12.45456955764039
H        12.71651593781880    0.88902087253748   13.44382430653882
C        18.49804356091385    1.75466173866399   10.02754386082172
C        18.95136590811343    1.24904053163542    8.77598222788936
H        18.24108653309311    0.51274929531311    8.40027930388089
H        19.92639559251701    0.77774701502216    8.89916102789256
H        19.03537899869680    2.06651333404593    8.06009147066194
Cu       16.92884271333573    2.87838252078085   12.38635803117462

