41
CSD_code = NAQQOL | q = 0 | S = 0 | Stoichiometry = C12H22Cl2HgN2S2 | MND = 4
Hg        4.18365133616904    7.91548188794861    3.59945801807313
Cl        4.62520505281211    9.95346223878200    4.49993256419284
Cl        1.73885368626998    7.35573118897442    3.24762346461725
S         5.14342198260058    7.35491095185896    1.06311090451720
S         4.91953204123473    5.73099696555558    5.13277466269861
N         2.68620650658902    6.74817557324276    0.33846535603608
H         2.43523012475831    6.84835880922688    1.32907591879525
N         2.43123812583157    4.87643521059873    5.00931818246910
H         2.26654313991019    5.63667780330480    4.33848653098499
C         3.92985618198535    6.95384196092024   -0.02394372219288
C         4.32163797967219    6.80898240910883   -1.46163872665253
H         5.36483585923500    7.11101164572259   -1.55077108765624
H         3.71574786731039    7.48509345205187   -2.07139640601707
C         4.16051442008505    5.37188509834899   -1.97552346325479
H         4.78915740012496    5.25919379750826   -2.86028706957375
H         4.52959779003836    4.67825980043488   -1.21804739453889
C         2.72644238609593    5.01426160123172   -2.35700310628896
H         2.37100234997053    5.71457634102814   -3.11701462660741
H         2.72364211427860    4.01809668714986   -2.80383631567673
C         1.75849790308489    5.02323142155107   -1.17672866810926
H         2.09964823440541    4.32507603898284   -0.41030154681661
H         0.77951414097736    4.68886791079560   -1.52362523719911
C         1.59563883702073    6.40864711640389   -0.54778736453665
H         1.50874927627830    7.16245915596937   -1.33792288855878
H         0.68847211051983    6.43793002778106    0.05667736254207
C         3.61595840205716    4.76679082187428    5.56275822141397
C         3.84537227520869    3.74415615390586    6.63144953730735
H         4.91517426312399    3.71075259715577    6.83526713833958
H         3.52801395360377    2.75907030008712    6.27994559490246
C         3.08972214851997    4.09948967107243    7.92036366441524
H         3.56778608281518    3.57525406324446    8.74935375151492
H         3.18797466711110    5.17031959181568    8.10740512520616
C         1.61431706635098    3.70869371898454    7.88902679883727
H         1.17895847340933    3.91874719773148    8.86792352820016
H         1.53117870328872    2.63217367367198    7.71799172726027
C         0.80420723514372    4.44759745370468    6.82651382343399
H         0.87447088102876    5.52502006619511    6.98555790149338
H        -0.24461015188987    4.16342705312611    6.92510042671153
C         1.25538067341314    4.12972797582521    5.39874134793906
H         1.45051415061474    3.05622753260517    5.30353180611386
H         0.47024432894549    4.40350703455563    4.69327426569259

