75
CSD_code = NAQQAX | q = 0 | S = 0 | Stoichiometry = C20H49ClFeP4 | MND = 6
Fe        2.27511824299299   10.03562967946147    9.09769019953885
Cl        4.00227446676187    8.70970559679611    9.08868376577407
C         1.67457242460609    7.13328113261456    7.24110886176711
H         2.68388359271678    6.92101711693486    7.60825307955189
H         0.95948005363882    6.70695027908929    7.95532881766893
C         1.48803268506743    6.48619572970961    5.87408259450105
H         0.49467431921785    6.66727451863487    5.47036836130757
H         1.61750748707442    5.40889542590241    5.96910524657368
H         2.22502783135683    6.84907463077040    5.16301952053549
C        -0.27188107115687    9.15091122942127    6.84760876453431
H        -0.42337077260557    8.57578174008063    5.92928642131875
H        -0.86496508717215    8.68863847055634    7.64118485406537
C        -0.71252157211849   10.59386683483857    6.65225003995606
H        -1.79796238987388   10.67333554916343    6.68748762674660
H        -0.37787244490417   10.97896780826326    5.69146596285805
H        -0.29119779576861   11.21320192447296    7.44131785792698
P         1.49067308793184    8.96844403406813    7.37584663242399
C         2.41170428128516    9.51592928055337    5.86692906659774
H         3.35673022876801    8.95972914399553    5.87704808723168
H         1.85743059599979    9.26253299155573    4.95773207069296
C         2.68620582164316   11.00643595356614    5.97432412080582
H         1.76667108266926   11.57416304384813    5.82101201708613
H         3.43013435677001   11.33748660047470    5.24206646333024
P         3.26887326913504   11.35511270797665    7.69610824585048
C         3.06594206219279   13.19224231243273    7.73110790378577
H         3.61134817013035   13.55317290917293    8.60963282610784
H         3.53736994529120   13.61206234525279    6.83775034599047
C         1.60569818335878   13.61439274047833    7.81358827684914
H         1.11602656987795   13.52095694565740    6.84713385981851
H         1.51818734446164   14.65010061878275    8.13794380022989
H         1.08255866401950   12.97705432385168    8.52289269456088
C         5.09556756279852   11.15994755241545    7.47112979792855
H         5.53327675438727   11.06249543562937    8.46642562769230
H         5.20806347471023   10.18093433557904    6.99280511374495
C         5.83542952338636   12.22677317062977    6.67630672360467
H         5.38148285789291   12.39363374063463    5.70144601564958
H         6.86327665258409   11.90515938697783    6.51519555702356
H         5.86123155771781   13.17307232358297    7.21176524762482
C        -0.52783843973840    8.41409653305546   10.51684368909290
H        -0.71354325492110    7.72748156128333    9.68367991052540
H        -0.80386930182332    7.90771942032703   11.44636227219969
C        -1.33464401349100    9.69252008722423   10.34088976620725
H        -1.37401818761887   10.25730037573461   11.26980911329888
H        -2.35585779357128    9.47189380583961   10.03458477677595
H        -0.86430587518981   10.31728191408079    9.58522994508419
C         1.98647089751546    7.05262520896331   10.84737826510546
H         2.18996924582113    6.60479689283303    9.87314925722579
H         2.96369464025935    7.23468707008571   11.30700940966444
C         1.17146380949038    6.09017204190482   11.70046004653811
H         1.76439811859932    5.19861804944010   11.89923038890054
H         0.26291226212852    5.78046865426639   11.18914465013799
H         0.89740258826554    6.52825378384687   12.65808946564574
P         1.28974810606005    8.74142942224026   10.53933169240417
C         1.46591839345402    9.46106029904143   12.23747078863598
H         0.70769572273472   10.24114115876668   12.35072943435321
H         1.30564222227788    8.69677880420557   13.00452822328955
C         2.85724191013988   10.06614768022379   12.30355490792263
H         3.61203191603789    9.27994532677641   12.19583939590024
H         3.05017714921006   10.61665824214229   13.22868189092927
P         3.01387569685396   11.14179198072834   10.81592448766332
C         1.97968263999150   12.60725973794583   11.27240461505859
H         2.30797270357832   13.40888685875806   10.60412530429658
H         0.96118561476819   12.34302981107538   10.97578628328893
C         1.99764976226915   13.09456053857828   12.71582419117872
H         1.42926724673246   14.02083178669977   12.79046953828033
H         3.00883739067561   13.29590856505636   13.06313047598753
H         1.54129242290052   12.36975881938082   13.38586969333192
C         4.70880794407912   11.84095538336202   11.07067403332217
H         4.92597773479586   12.44957877887967   10.18558781702373
H         4.67572537797388   12.51286257061200   11.93424202789729
C         5.79187620388573   10.78517231532691   11.26240043767247
H         6.77850007795497   11.22600442744645   11.12566957838342
H         5.67143535956151    9.97373662862096   10.54766751371597
H         5.74723451430629   10.36423436444089   12.26405371086906
H         1.12210717716792   10.89749153697896    9.08834053292981

