100
CSD_code = NAQSEE | q = 0 | S = 0 | Stoichiometry = C51H43NO2P2Ru | MND = 6
Ru       14.41028441153636    8.82167114541501   10.72481569473426
P        13.45027778127098    7.44218608908274   12.32012657637894
P        15.64680405212343   10.12770059137907    9.26480494280529
O        12.30136404416167   10.91605060727953   10.89247962249968
O        15.76937588603431    7.23886871445359   10.18795251395510
N        13.36187049481532    7.84353093355106    9.14993153329655
C        13.14219294434130   10.12436988402101   10.91585845970925
C        15.71650162167017    9.49844602810429   12.17334681806570
H        16.74024523925729    9.11537142790433   12.07696002844306
C        15.52760260529041   10.31132004343288   13.21289014278807
H        14.54202956532584   10.71757438610242   13.42252011420622
C        16.55161666987296   10.68300756830687   14.18810031478533
C        17.90986325148297   10.72473138254834   13.87011720679674
H        18.23009914950273   10.50624969564166   12.86077668228050
C        18.84835037749253   11.06803387115587   14.82135504812989
H        19.89568159906234   11.10034067719860   14.55192348520887
C        18.47126418536243   11.38176606471679   16.12289424537001
C        17.11994793335974   11.35051469449016   16.44003342689866
H        16.80237183618535   11.59573259784716   17.44469121275276
C        16.17589385702652   11.01462486201309   15.48931949335936
H        15.12764867357185   10.99220447297641   15.75515263560311
C        19.50632953679891   11.74963635128043   17.14382622486719
H        19.04396567867285   11.98715132018803   18.09889842590301
H        20.07983422816418   12.61444901697725   16.81099955104952
H        20.20455096021845   10.92592314287438   17.29212911246706
C        15.35054862355897    6.56998127760346    9.21563002192178
H        15.98497839961289    5.75374051694796    8.84032203832084
C        14.11898602542363    6.81960598350203    8.61667262337011
C        13.40180799780403    6.21109411471260    7.56132744410171
H        13.74527234305875    5.39003892519480    6.96150281843905
C        12.20431435295038    6.88253134606465    7.47991747075758
H        11.39712399582551    6.69836537611087    6.79646207358537
C        12.22682988069180    7.87549937824490    8.47791941156363
H        11.45396319458232    8.58749548871044    8.71296620758742
C        11.81369175125351    6.76891973081401   11.86863661974110
C        11.77293834259692    5.84346425358850   10.82548360688615
H        12.69843583212979    5.49627396756405   10.38354958939197
C        10.56580685211593    5.35849036215313   10.36266933105454
H        10.54987821942905    4.64474078682874    9.55204269829318
C         9.38054002257634    5.79458674437277   10.93301894160808
H         8.43485795945471    5.42138999229890   10.56842735001101
C         9.41256688599821    6.70805219363455   11.97261066742082
H         8.49062017255233    7.04558544177795   12.42367297907918
C        10.62083523883541    7.19714703810775   12.43917157857386
H        10.63286997553661    7.90611349241762   13.25397402660788
C        13.16555023731046    8.13916612952167   13.98176440989626
C        13.64390284315676    7.54544553518719   15.14324094373405
H        14.20003836223184    6.62078891646035   15.09267901273658
C        13.41612317008739    8.13994045820552   16.37275027558265
H        13.79907617659123    7.67504628233489   17.26945745641656
C        12.70528475920244    9.32421606919545   16.45667964940480
H        12.53155050200385    9.78518317337917   17.41802587204571
C        12.22476327449361    9.92248260023803   15.30237594088083
H        11.67581664999842   10.85138161317625   15.36119060760095
C        12.46125633258964    9.33869198361267   14.07228549990490
H        12.11008023124310    9.81429039773182   13.16661623034330
C        14.39391237280303    5.93213529293929   12.72009161715896
C        13.80259303435253    4.69077427048783   12.93482461255931
H        12.73024205504562    4.57832656083838   12.86069104744319
C        14.58857964210109    3.59587160445093   13.24951740874111
H        14.12363457952234    2.63390996387509   13.41103146940348
C        15.96283182765832    3.72904509743649   13.36057189416492
H        16.57101630239330    2.86908117282534   13.60065377669203
C        16.55373904132993    4.96800535019835   13.17054524265646
H        17.62394603128738    5.07826782277287   13.26897626452294
C        15.77400250640339    6.06494006655960   12.85451886593171
H        16.22427638602064    7.03790617758407   12.71377964688404
C        15.16274648971664   11.87871244754189    9.14071968656878
C        14.93432551568844   12.54453313094550   10.34300360665962
H        15.03682707629861   11.99693824402645   11.27221665388530
C        14.58920104570645   13.88277782702695   10.34177811441825
H        14.41062737957451   14.39281726683907   11.27668647470402
C        14.46993006599862   14.56710869771071    9.14228006676640
H        14.19208133414542   15.61086076121857    9.13934099666944
C        14.71247999639072   13.91306094884067    7.94606972268843
H        14.63007908093238   14.44745277264286    7.01059202875569
C        15.06473678770869   12.57428376413304    7.94058688632686
H        15.26402472177478   12.07384150967075    7.00327652341347
C        15.52587982258605    9.53184577680897    7.54894009328897
C        16.54057395745060    8.82747611492529    6.91250103064191
H        17.50328841274971    8.71306322903651    7.39202501325992
C        16.31799551925504    8.27499613173443    5.66264532196256
H        17.10935206169223    7.72732489530459    5.17118851612670
C        15.08690993280628    8.41604402166632    5.04592769911812
H        14.91557409914695    7.97559243350514    4.07480409228368
C        14.07149605088477    9.11883464911903    5.67647563237383
H        13.10904237755993    9.22610336843639    5.19836822515019
C        14.28604726987358    9.66938316229427    6.92385914411515
H        13.49587205909753   10.20645736056739    7.43432211962781
C        17.45040703831396   10.28417086888209    9.52385744762390
C        18.18374965359034    9.14804417652576    9.86299363621859
H        17.67860114813941    8.19762280437857    9.96912129679787
C        19.54609537943148    9.23243799515112   10.08388409402092
H        20.10349642533562    8.34586129913877   10.35077943015898
C        20.19326515463541   10.45228283206183    9.97327400156412
H        21.25608924977291   10.52033921199297   10.15352840418194
C        19.47125886041269   11.58469535764609    9.63709520212347
H        19.97072227915228   12.53886315684923    9.55270270971438
C        18.10783693315140   11.50520302453184    9.41293808018353
H        17.55593785458589   12.39770224017965    9.15756929338969

