45
CSD_code = NAQTUW | q = 0 | S = 0 | Stoichiometry = C9H23B10CoOS | MND = 10
Co        7.87634875526153    8.06744315812269    1.61334835095725
O         6.67761515846492    5.10586225594929    2.65857953449374
S         5.64469352146882    8.72858029329199    3.88414754282722
C         8.26258061497197    7.02184657860233    3.43046426385901
H         7.96867128447648    7.24529092712665    4.44850272278138
B         5.82075002257146   11.06767512756393   -0.01458071524577
H         5.20154292525728   11.94700322919968   -0.49300819934090
C         9.42363097843425    7.58541279833769    2.88233151607526
H        10.09979534684524    8.25747322586749    3.39604354613023
B         7.28370467412036   10.39794842466814   -0.76431228792338
H         7.82574294126358   10.75431062914782   -1.74554041151819
C         9.64778940445064    7.08773196277753    1.56423269059301
H        10.51859133347852    7.32971750827998    0.96841856099312
B         7.40772866356872   11.35159298329917    0.69784759925087
H         8.04683863326801   12.32740735045307    0.84296699269822
C         8.64615345657426    6.16606270817958    1.20873044188907
H         8.68215371255898    5.65517255480207    0.25690798125530
B         6.07250487518170   10.89852575801186    1.73481613316517
H         5.75086550743585   11.63543206493411    2.59896586102059
C         6.26532913951630    4.21504246556450    1.65396410907907
H         5.42572544036601    3.63690886067108    2.04516617858631
H         7.07428007108459    3.53258350894737    1.37987652749073
H         5.94971804791507    4.75911523682997    0.75962086529139
B         5.03475341412705    9.74132865515793    0.86643608310062
H         3.86358567556879    9.70020756932047    1.03634989973026
C         4.22920665530126    9.84112230513290    4.24981807736100
H         3.65571027470565    9.40671752726674    5.06181931564006
H         3.61798747792391    9.96086325349424    3.36217314196689
H         4.62243838857623   10.80272189810475    4.55813805881313
C         4.65105330782727    7.24079030475759    3.60170396646197
H         4.11586957867428    7.00370444886334    4.51616493923267
H         5.33049601921838    6.42963950453281    3.34869285834162
H         3.96265839254190    7.41946221009909    2.78262247537350
B         5.82252920846196    9.39599580353195   -0.67712087206573
H         5.22369219403709    9.11833202361570   -1.65280689200451
C         8.24009796591842    9.86809392155019    0.52760351243014
H         9.31929187498523    9.97390865209919    0.47119661483181
C         7.57247739972375   10.09358877884366    1.89715293420869
H         8.20441942504520   10.38322008131911    2.73413912761212
B         6.19204981902220    9.15026018100956    2.06659721302847
B         5.98513255249469    8.21148449624756    0.64183256166591
H         5.38756903346244    7.19739850372724    0.54026603202762
B         7.42046415030211    8.66267158099876   -0.30823598926308
H         8.00884397426053    8.01236759099323   -1.09610861875709
B         7.74231870928764    5.95488109870612    2.43987575585577

