131
CSD_code = NAQVIL | q = 0 | S = 0 | Stoichiometry = C42H83BO2P2Ru | MND = 8
Ru       -1.50218869387486    1.89374741475744   19.15869507333618
P        -1.17460282791339    2.19929028541136   21.51540278667311
P        -1.19406621817831    0.82512647535468   17.04571283276328
O        -4.20531008840799    0.09602920205294   18.70823894177855
O        -4.24781283462803    1.14806050456505   20.70903223512812
B        -3.62037287240054    1.07153486928348   19.48591535993431
C        -5.16054710749868   -0.63049249242054   19.48081690452408
C        -5.41094813996104    0.32065792201964   20.70186285108640
C        -4.53249663027980   -1.96928692563590   19.88573000642451
H        -4.25216098426807   -2.51242200652783   18.98620680768599
H        -5.23584888716964   -2.57005642696410   20.45533270461856
H        -3.63381951298231   -1.80550824419453   20.47459799102137
C        -6.38883434253003   -0.90721322875257   18.61427721078228
H        -6.77053100496103    0.00479581371973   18.16580608706295
H        -7.17107367514592   -1.37261712815596   19.20798818512180
H        -6.10884272908808   -1.58617633274088   17.81189426312334
C        -6.61213546459335    1.25299605414627   20.48714433182273
H        -6.63114424903050    1.98889808493239   21.28810747517901
H        -7.54648119555281    0.69930890915021   20.49620002832638
H        -6.51071521757638    1.78880107877133   19.54621346934170
C        -5.56685859902151   -0.38083946232658   22.04889368306267
H        -4.67940995135231   -0.94863649773893   22.30765023410656
H        -6.42647078646827   -1.04592160152836   22.02410872035812
H        -5.72891649587961    0.36816561039235   22.82117037079571
C        -2.57460327649108    2.84509502724938   22.59298659356118
H        -3.25775781210256    1.98797830826239   22.62279119133749
C        -2.23828393807596    3.23971374708954   24.02957513413713
H        -1.66777774454931    2.45580777677760   24.52983150683207
H        -1.64568195637065    4.15536855246678   24.03584664715898
C        -3.52925173496484    3.49603638111382   24.80715160931502
H        -4.12449348489904    2.57974011783684   24.83657796646668
H        -3.29114943767535    3.77169673986790   25.83768310375579
C        -4.33935881246448    4.60638423638823   24.14559513768457
H        -5.27049456668117    4.76724977075202   24.69439245135497
H        -3.76915895292096    5.53816932466396   24.17755897800151
C        -4.64170992639862    4.24859541933453   22.69373720317702
H        -5.19650567185968    5.06054656357479   22.21753342667380
H        -5.26701703371731    3.35329986964175   22.66552802977353
C        -3.35192791778999    3.97803739470101   21.92286742784562
H        -2.75523175899734    4.89060269983307   21.89061272672834
H        -3.59406786545531    3.69182144952502   20.89709125232601
C         0.30862652767808    3.33622018822680   21.81544231572367
H         0.99265141352300    2.99137878657260   21.02570412880451
C         2.35764109170910    4.07066789748959   23.04220938337540
H         2.90070409099528    4.01197059634740   23.98879840228307
H         2.98848469681875    3.63051132029094   22.26652751838093
C         1.05786889226994    3.26993756032911   23.14920670008139
H         0.45397495523152    3.69142871515380   23.95224807688513
H         1.31202005277378    2.24658993971356   23.41994151258880
C        -0.00962336439243    4.80143956852866   21.51509882301848
H        -0.56836047569896    4.87367655557149   20.57993963201499
H        -0.61582008937387    5.22532520463292   22.31787602584175
C         1.27884935882805    5.61164071946317   21.39787279478503
H         1.87682916345798    5.21825930420283   20.57335235525861
H         1.04083846194780    6.65386146369883   21.17256628869460
C         2.07655669984203    5.52795853645909   22.69463026324243
H         3.01588366733810    6.07633720521454   22.59562784077440
H         1.50500613232015    5.99015529915456   23.50368185598671
C        -0.65117493587199    0.70055651536847   22.51878094534734
H        -0.41009137650682    1.04364046526359   23.53158151217622
C         0.58611512398819    0.06209563704287   21.88936507631747
H         0.33244061159451   -0.24367105965103   20.87316647328148
H         1.39909170838366    0.78556813000535   21.81396819055804
C         1.04899499052198   -1.15493349649219   22.68530094995204
H         1.92952625479291   -1.59182626407580   22.20910151114932
H         1.33362739009551   -0.84884783091739   23.69593178584552
C        -1.76328747877239   -0.33965276941515   22.61630475601258
H        -2.63977932862922    0.08709837706619   23.10650345197245
H        -2.05092996367706   -0.63401059582091   21.60413411468686
C        -0.06756954611570   -2.18920039051380   22.76692887339345
H         0.25848050518605   -3.05463482281121   23.34846781142494
H        -0.31311167035107   -2.53534758942433   21.76023606104656
C        -1.30535406971687   -1.56684951005837   23.40206470261996
H        -1.07366833949828   -1.27135205546223   24.42907998244101
H        -2.11391751869571   -2.30169545599155   23.44349449829066
C        -1.11449675303260   -3.32949967297499   17.65516674260917
H        -1.85853780669919   -3.98016732856991   18.12219493489518
H        -0.96679821916322   -3.67720697180098   16.62868311007344
C         1.23661470102769   -2.49690940910268   17.77448720838371
H         1.43390892758514   -2.82856671526967   16.75106037304022
H         2.17676295991660   -2.54665943369530   18.32856654217755
C         0.72620830508197   -1.05887873920930   17.75605780609033
H         1.47303583216541   -0.41187656882004   17.29347780256594
H         0.58021196667915   -0.70278766175265   18.77750954462663
C        -0.60149941571256   -0.95067327611612   17.00925982555479
H        -0.44728970605257   -1.23661689790295   15.96300182541227
C         0.20551280628372   -3.42068608879219   18.41222947960550
H         0.56940596776374   -4.45092261963212   18.41130176399023
H         0.04860009662502   -3.12128420019798   19.45088210774715
C        -1.62581656264468   -1.89101959547313   17.63703946428710
H        -1.82011757320028   -1.55908777271129   18.65845841516040
H        -2.56828500318727   -1.84658132987413   17.08828338986948
C        -0.01644051642507    1.67669751120056   15.84154994790748
H        -0.66427673586719    2.43293216376770   15.37551602407991
C         2.41370478092880    2.49175441887161   14.37859360567377
H         2.90061949139747    3.14076510079510   13.64718101345851
H         3.16644476848350    1.80083356512449   14.76568831793962
C         0.58388935838924    0.81067568479200   14.73172676259666
H         1.31281103777938    0.11692600440733   15.15340233896084
H        -0.18105310112110    0.22739611955703   14.22136278760921
C         1.85155381768414    3.32238256641328   15.52760091997000
H         1.15769281939443    4.06734274305872   15.13064781829622
H         2.66010817746972    3.85606727558731   16.03127411028911
C         1.12003948333155    2.43363031299450   16.53074684378941
H         0.71825729467589    3.04402095921571   17.34140154527371
H         1.82653767653365    1.72751163944828   16.97070919735659
C         1.29724806630902    1.69730773921149   13.71048881777876
H         1.70785720021039    1.07681839959680   12.91001508585263
H         0.57899873933142    2.38793013843607   13.26150797377261
C        -2.77154905320609    0.71479356402541   16.02374104524280
H        -3.44876471274604    0.21205656062135   16.72573404153712
C        -2.77654117507124   -0.07706955984259   14.71566321975285
H        -2.22858038102022    0.46697583346950   13.94397657138405
H        -2.31887809845743   -1.05927557926862   14.83952788058322
C        -3.36762444933166    2.09640373913007   15.74566209668566
H        -3.33286891716963    2.71341156141274   16.64725062893162
H        -2.79568006415586    2.60667302967472   14.96572614171086
C        -4.22123068744318   -0.25517815132427   14.24545893063350
H        -4.24011801506769   -0.83939800401105   13.32196583916262
H        -4.78216807680140   -0.80793254421076   15.00292511715421
C        -4.81428328623046    1.94828972556564   15.28109954442096
H        -5.39453594708997    1.46943051006454   16.07339267417073
H        -5.24929984102435    2.93292871816194   15.09283891469410
C        -4.88304446067063    1.09975935142486   14.01493355182471
H        -5.92342743115274    0.96072233007497   13.71184356574972
H        -4.36693776429942    1.61969068380795   13.20379140890234
H        -1.43896206808164    2.93334213349277   18.01532631228998
H        -1.56088295094791    3.38351639098457   19.54594700565947
H         0.03440633784124    1.90026534221309   19.20331784552600
H        -3.13783892405470    2.10603897645481   18.95836844413198
H        -1.46236614758025    0.42750592562135   19.61664221872658

