47
CSD_code = NAQWUZ | q = 0 | S = 0 | Stoichiometry = C18H16CdN10S2 | MND = 6
Cd        2.80491935111911    4.21826781255852    4.13764853588930
N         3.98623467904550    2.64184511764837    3.49840528299596
C         4.14381710739076    1.50975240793230    3.77366132187650
S         4.37743972082100   -0.01362967711868    4.14881773294410
N         4.60098569973630    5.77637892206075    3.80362684483200
N         4.54009092617999    6.60340801430888    4.81849393909186
C         4.64393329470335    7.90105979680475    4.62689287572336
H         4.56206103841719    8.51079314245738    5.51529836157264
C         4.84903716655745    8.46583340103984    3.36635854767328
H         4.91683157273564    9.53564493729711    3.24279230868586
C         4.96178517012769    7.59289859193058    2.30699894599588
H         5.14128591159050    7.93616979533059    1.29977182363353
C         4.81044380575794    6.23133373712952    2.58081496356584
H         4.88228673343554    5.47938865528265    1.80765462714475
N         3.74316146998896    3.54669049193747    6.29136525712706
N         3.30682744061950    2.35772040553546    6.60706949471864
C         4.12738115282367    1.44443593297633    7.08360248644732
H         3.68032214036117    0.48557442971142    7.30338739911177
C         5.48605211390970    1.68451422493400    7.28775965573417
H         6.13924811804693    0.90846674275611    7.65498400304475
C         5.93981883308076    2.95255941110890    6.98999188720361
H         6.97313038231755    3.23344238413850    7.12644793397801
C         5.01244710103605    3.86524887640053    6.48693625167214
H         5.27984432757630    4.88062992087504    6.22909485345766
N         1.62494962192014    5.79649112283276    4.77491571281423
C         1.46975833627952    6.92828747577183    4.49732806492354
S         1.23632523025049    8.45245898541164    4.12539391846242
N         1.00987471715056    2.65989795231258    4.47308902251273
N         1.07198166412317    1.83290205591245    3.45828192231102
C         0.96948690104662    0.53513384035603    3.64995157838537
H         1.05248259516028   -0.07459508265263    2.76165234752800
C         0.76422277770007   -0.02975609229226    4.91040352138553
H         0.69723750929803   -1.09961820621677    5.03400336246382
C         0.65013989025145    0.84311827866406    5.96968061616830
H         0.47034874429773    0.49973440174569    6.97682278402752
C         0.80050283002502    2.20477829529046    5.69586314630009
H         0.72783834055120    2.95665340679905    6.46902437779948
N         1.86741847884266    4.88974127634858    1.98341915345753
N         2.30515339351267    6.07798957319929    1.66684209051370
C         1.48556805810338    6.99204970131262    1.19015034176714
H         1.93364550632454    7.95036466439396    0.97009215790005
C         0.12649280647738    6.75360335455132    0.98670908227944
H        -0.52587750144158    7.53034955949355    0.61949033645526
C        -0.32877336607008    5.48630685889870    1.28537183302645
H        -1.36248311654435    5.20668147156823    1.14935795148136
C         0.59765302843577    4.57271784993851    1.78859884896977
H         0.32906829721207    3.55778178047978    2.04698249481368

