58
CSD_code = NAQWEK | q = 0 | S = 0 | Stoichiometry = C32H18N2O5Zn | MND = 5
Zn        8.45587211822683    7.37589471492053   12.38179960134558
O         9.49946944858452    5.91384565004272   12.79159840719912
O         7.87546394350788    7.73471806099857   14.10124768645251
O         9.73396120428452    8.75664925925984   12.18304141652644
O         7.75965640754748    7.75064184469811   10.64343752575692
O         6.71194417354565    5.87566841273149   12.27083715495010
H         7.12325197761243    5.12388196092775   11.83421404798495
H         6.15056496493235    6.30385551161291   11.61809463954103
N         9.57145801063749    5.60159723878523   18.83924130081024
N         9.23638259070482   11.25150688169616    6.70324694598945
C         9.81076282583975    5.56680401862980   13.97671806226271
C        10.78505578237747    4.50977393279206   14.09911353701237
H        11.18042163516668    4.12513237629213   13.17042388459811
C        11.18806985636145    4.02642877251180   15.29238873568072
H        11.92176061184338    3.23471575249597   15.35477238404321
C        10.65090747310686    4.55021859968002   16.50163051806187
C        11.03457687365227    4.07094952074457   17.75830760969322
H        11.76286900335606    3.27775435667021   17.83547598676446
C        10.46616167962819    4.62858345966406   18.88520473066335
H        10.73110930594520    4.28876091440501   19.87790202277439
C         9.19017421136834    6.07883372582679   17.66240328286937
C         8.21156306799793    7.14325369271830   17.65139387109976
C         7.68044754216344    7.64635997322102   18.84222563933684
H         8.02156119035829    7.21547398718666   19.77013542253417
C         6.75038308781996    8.66141478718892   18.81860623924281
H         6.34419508326306    9.04418927405229   19.74349850609792
C         6.33080146210682    9.19776112011350   17.60378476712220
H         5.60162791961896    9.99444058346592   17.58993098271970
C         6.84526465453352    8.71244401792924   16.42295756412693
H         6.53406121256230    9.11359958719068   15.47061426766370
C         7.78996281557579    7.68003668284648   16.42619230808043
C         8.31109737084254    7.18455191058570   15.14882645775971
C         9.26672794115683    6.11852111954304   15.17617228391962
C         9.69546490871179    5.59242453509066   16.43018696395604
C         9.97038415733475    9.50677687272053   11.19304520113811
C        11.05980081459349   10.44982740048796   11.31239426424573
H        11.59352686779627   10.43635364552111   12.25102662742420
C        11.39526248348151   11.29715205485603   10.31860072838630
H        12.21501313459671   11.99297216379715   10.43275939241206
C        10.67632469989106   11.29788214950990    9.08707062010154
C        10.98936917301802   12.15954263466666    8.03312179888595
H        11.80313434456501   12.86223536883706    8.12954696308124
C        10.24045195811157   12.09335281056169    6.87317786386884
H        10.44808973930971   12.74277923873317    6.03284771293785
C         8.91538506184279   10.41974358365797    7.68690974045199
C         7.81517552347225    9.50707184990885    7.47437666856261
C         7.11107350099723    9.50058891789453    6.26660879667103
H         7.41439222494617   10.19860027719439    5.50269536498919
C         6.06607212849802    8.62700129650917    6.06944166037388
H         5.52707397690256    8.62915804599855    5.13361956773833
C         5.70032181706110    7.73675391097927    7.07631329938711
H         4.88039691732898    7.05166887144489    6.91874347269161
C         6.38398555607183    7.73188878492593    8.26990495271766
H         6.11238929860321    7.04621881147887    9.05818313218664
C         7.44866032389034    8.61275468838497    8.49286274005908
C         8.15650389176244    8.58582648075751    9.77378285357790
C         9.23741944578740    9.48996878694911    9.96410508226402
C         9.60304060520400   10.39039511770654    8.92383674121450

