124
CSD_code = NARDOA | q = 0 | S = 0 | Stoichiometry = C64H54N5Rh | MND = 5
Rh        5.56528776965976    9.52254610544073    9.28179905599341
C         7.68533331859309    9.45974300691654    7.11906244051587
C         9.07099429477437    9.74831505008464    6.88520175394982
H         9.58305102841685    9.59293181073897    5.95583433340124
C         9.57220844323783   10.23281124168497    8.04409807714083
H        10.57046535798113   10.56968568268763    8.24386946270171
C         8.50016109750026   10.22475327345978    8.99741264847367
C         8.61808152954942   10.69546843958731   10.30257065007704
C         7.57708190163814   10.68329096014643   11.22709414247478
C         7.70988893920404   11.14009121989362   12.57999043872768
H         8.60867829015856   11.53936619937392   13.00797153248438
C         6.51026953584890   10.95581290708149   13.17566745276057
H         6.22738131130940   11.19436170067290   14.18150558295112
C         5.64653063130455   10.36061728877261   12.19767763399765
C         4.33224196226266    9.97775039164174   12.45140247731551
C         3.51227435053237    9.36518166058118   11.50668289820076
C         2.19963407199404    8.86534198313068   11.79888138630294
H         1.73862073396472    8.87895079911800   12.76702715481447
C         1.70432074434532    8.36595989637494   10.64418260351552
H         0.75787220258389    7.88904623113780   10.48090894956224
C         2.71036933952083    8.56291685511690    9.64032786684468
C         2.54581445729087    8.21472513493891    8.30156657959346
C         3.55504937336567    8.32641560196320    7.34860579344779
C         3.38753394133051    7.99549069580273    5.96313739377763
H         2.47202302826216    7.65733123489877    5.51996334391555
C         4.58027427729000    8.20499988541525    5.36161976102876
H         4.83401763799762    8.07468750126479    4.32763393980918
C         5.48238534188205    8.66585660747868    6.37698106277321
C         6.81871017523938    8.97780043178228    6.14120943156483
C         5.12577253256490   11.42750893173156    8.66401996418172
H         5.91159968913256   12.07261215898305    9.07075631637720
H         5.18988934959413   11.42442089754536    7.57080890249569
C         3.75696001556450   11.92345160263807    9.11078369541405
H         2.97131752897125   11.28132984975929    8.70420073385088
H         3.69064426901453   11.91198053521976   10.20189537190937
C         9.92132527799150   11.24565894484863   10.73361518994824
C        10.04696293876730   12.59446204545276   11.05257703503267
H         9.18306136277371   13.23907451096265   10.97710752857485
C        11.26330265192038   13.11066688450333   11.45352671862940
H        11.34637466869895   14.16141968468205   11.69379538474055
C        12.38686600417395   12.29711796239734   11.55378309319614
C        12.25727400424612   10.95125857786884   11.23961784543852
H        13.11702906032963   10.30029075232828   11.31454178161303
C        11.04251887410130   10.43027992462837   10.83230473874335
H        10.95568562339585    9.37918074693661   10.59744771023501
C        13.69920955450518   12.87330706554090   11.99114418478082
H        14.46790082556621   12.10578738779979   12.03289807966230
H        13.60563817376276   13.32629615332294   12.97753200004579
H        14.02146912170828   13.65055592630587   11.29884844461584
C         7.34865609371372    8.78668373173621    4.77428618180450
C         7.78496285948492    9.87441666126447    4.02396081534042
H         7.72655310903955   10.86692400190426    4.44736203007045
C         8.28036320698632    9.69293247607989    2.74755846779963
H         8.61225473680113   10.54816640797715    2.17564622116621
C         8.36093273961715    8.42353581123387    2.18559098918639
C         7.92656472217093    7.34011292989830    2.93744156647221
H         7.98328849849344    6.34426571796029    2.52070161528807
C         7.42387222484973    7.51677837497479    4.21341014993571
H         7.09590991388983    6.66330010189460    4.78919176371341
C         8.89216538266216    8.24273274068636    0.79614575398413
H         9.08381583622692    7.19356862442907    0.58526809335188
H         9.81605392068889    8.80280158228575    0.66233242899436
H         8.17060848499821    8.61289938063304    0.06733456583128
C         1.22476984725666    7.71628099792303    7.87193363115587
C         0.09752710144504    8.51808647609958    8.01406361310865
H         0.20350216473825    9.50514578769307    8.43893537555625
C        -1.14203278677722    8.06845150302383    7.59894614840221
H        -2.00521182066564    8.70961041533543    7.71022112627640
C        -1.29378546196604    6.80619830410927    7.04152034016058
C        -0.16701991791418    6.00109537208593    6.91319370978217
H        -0.26816216879893    5.01162048540803    6.48951641996681
C         1.07522870324720    6.44765825760862    7.31899199274656
H         1.93906735778246    5.80580688581263    7.22153573907599
C        -2.63391137054897    6.30725898663130    6.59302376476006
H        -3.39191322021681    7.07977235059604    6.69547108781354
H        -2.93536530758063    5.44569224508748    7.18844015664269
H        -2.59480526820058    5.99208716416907    5.55108112630843
C         3.76784420031966   10.23783662011725   13.79068730671759
C         2.67075484407565   11.08131680488192   13.92907918490318
H         2.24306998526516   11.53676537899692   13.04821570177496
C         2.14316416428127   11.34838698257914   15.17822324695927
H         1.29437029593358   12.01189321791979   15.26802133065190
C         2.68663685739566   10.77527799893947   16.32049156478542
C         3.77364064045835    9.92062528636141   16.17728493135737
H         4.20415795714328    9.45772598057289   17.05434666264192
C         4.30998247762781    9.65546850284947   14.93202791884378
H         5.14902002148517    8.98115962053558   14.83682638081831
C         2.10598453137653   11.04642567999272   17.67519224859088
H         1.49317589338116   11.94455519473171   17.66388794043571
H         2.89390788796115   11.16581087403739   18.41630635893872
H         1.47888071422197   10.21050902583632   17.98732846713674
C         4.43686495907836   14.19346684938938   10.74299575338754
C         5.67383143633653   14.06051162620432   11.35609456790113
H         6.56942584779804   14.01980123596698   10.75157281072073
C         5.77355185783942   13.98811291778976   12.73495323774114
H         6.74432805733272   13.89687443696783   13.19860673011883
C         4.63301129979203   14.03409734767739   13.51567399552614
H         4.70694850230093   13.97049368814499   14.59136301136488
C         3.39301314844932   14.16381683666676   12.91222650519381
H         2.50153848779980   14.20948928391406   13.52050052433106
C         3.29611331981234   14.24596751027576   11.53602458708265
H         2.33299405699787   14.34560583955578   11.05792309214753
C         4.31631641004330   14.30434174486412    9.24852612659520
H         3.86609443858568   15.27513423987349    9.00376239331486
H         5.32120311952035   14.28658522086605    8.79183537152452
C         2.36063017730354   12.45555799672547    6.64450148498847
C         1.03809822093267   12.42589720462133    7.07303348672355
H         0.72666004942720   13.10540487277686    7.85231467632032
C         0.13885185377990   11.53689933945409    6.51560211007887
H        -0.88751406413051   11.52502792291749    6.85304195585953
C         0.54771733961374   10.66802151231565    5.51666096145099
H        -0.15608378812799    9.97487919716908    5.07985278104584
C         1.86063838823060   10.69277240906104    5.08365012466125
H         2.18695927582663   10.02480288184799    4.30095238698867
C         2.76338310232562   11.57677913369775    5.64978139346607
H         3.78868943340891   11.58305401172816    5.30705452062514
C         3.31816299348223   13.44641507017815    7.24617909918882
H         4.29397616469302   13.37903909970471    6.73474454885374
H         2.93009673848039   14.45844780006803    7.07419936801814
N         7.36510594518547    9.73556317819908    8.41710208399354
N         6.31528016030417   10.20606820518848   11.01795084469702
N         3.81771484659853    9.13493664521252   10.19667112716865
N         4.83361242113608    8.74653753805973    7.57576515277846
N         3.43814913367667   13.28594591943649    8.68886849937888

