79
CSD_code = NARDIU | q = 0 | S = 0 | Stoichiometry = C40H35ClMoO2 | MND = 8
Mo       -0.25306549551839    9.66212485502451   16.79487794256165
Cl        1.11088034472029   11.12608175869955   15.70171803936043
C        -1.59668651700966    6.71387790452832   17.50005509563271
H        -0.63070635765641    7.00908757234327   17.89686344977685
C        -1.97676741743238    9.70249077072644   18.29224281073143
C        -1.05135053213798   14.79973334701515   22.02628165348340
H        -1.36814778316930   15.31437627085350   22.92098726184649
C        -2.47678244880867   10.45651349707511   17.16785842893746
C        -0.96420208357945   10.49948565376130   18.93065976102299
C        -1.66758035234261   11.59522445140701   17.02016639511950
C        -0.30457069773482   10.17206368831369   20.24422291489516
H         0.27934163055370    9.24969566515785   20.14771705260951
H         0.39087834449138   10.97533361633881   20.50446284583586
C        -2.65794645927604    8.50167008864754   18.90793070958722
H        -2.08730827995027    8.18076399134194   19.78409071051354
H        -3.65982233202475    8.78871826206578   19.24531013144759
C        -1.30608463206040   10.02537710617543   21.36442518944799
C        -0.72597031978212   11.61927014439119   18.12066553046576
C        -1.82031261360332   12.68744682775152   15.98615567603283
H        -0.83302356174738   12.97688047534862   15.61375104171445
H        -2.39090807254815   12.30009598599276   15.13635212731590
C        -2.75534910736084    7.35074372155509   17.93600828596002
C        -2.40175720839058   10.87542404492534   21.44532141115302
H        -2.53097188271635   11.64604975646328   20.70029051075826
C        -2.52321415321395   13.90409244372218   16.54243467186350
C        -4.97644606364193   10.20670582335010   17.16073399363313
C         0.21111258430339   12.74916884922980   18.46557890593639
H         0.24448016986624   13.45974534200447   17.63662423407187
H         1.22742912813797   12.36794721158465   18.60736221680310
C        -3.69336406855090   10.08621896822073   16.36901715860669
H        -3.59620711539163    9.05801599345224   16.00470337849930
H        -3.76903247222086   10.72897993736929   15.48545833898610
C        -3.85624465697297   13.82908387262802   16.93001936176777
H        -4.40005905548262   12.90436720964585   16.80936660021684
C        -0.23286770222566   13.46920835740826   19.71835244582686
C        -3.98681692951720    6.90949749189050   17.46917715898175
H        -4.89355872135733    7.38377361548090   17.81883614955029
C        -6.13796612246565    9.63179401403201   16.65649991132170
H        -6.09886157979071    9.09881564698336   15.71728023018468
C        -5.03888532739591   10.88766296472135   18.36979409349642
H        -4.14958801914018   11.34371076734209   18.78073095359168
C        -2.90302625230037    5.26311818935143   16.10193631124838
H        -2.96029335529243    4.46119448913823   15.38120490327090
C        -1.67246434007013    5.67991247146763   16.58258642742519
H        -0.76725575273831    5.19882450091018   16.24547735110337
C         0.26828635988203   14.41027824188347   21.87855317331413
H         0.98536049759920   14.61946648063627   22.65860362260824
C         0.67389742738706   13.75054793449659   20.73157119660779
H         1.70808139817276   13.45431401067505   20.62217361119331
C        -1.85166173961301   15.11154078568319   16.68413277545754
H        -0.82284287790229   15.19560865725793   16.36370203618172
C        -1.14038284413590    9.05021153585896   22.33935723033012
H        -0.29090799475558    8.38360324715435   22.28935563121397
C        -4.06014384443571    5.87225712646317   16.55476520754680
H        -5.02395745611225    5.54356037374634   16.19400774467695
C        -6.23462764411051   10.98669375510590   19.06137062032592
H        -6.26365835511125   11.51659879414492   20.00199563513133
C        -7.38442482552595   10.41018326706281   18.55238556136155
H        -8.31626456392643   10.48670286769556   19.09232855228924
C        -7.33276558371600    9.73263016541133   17.34509022972698
H        -8.22565783943760    9.27920364104163   16.94067973973013
C        -1.55628785262801   13.86185851859148   19.87683139961933
H        -2.27362326109396   13.65233573004356   19.09774934510316
C        -3.14508436786392    9.77251867725789   23.44118256526981
H        -3.85875183269037    9.67273344838070   24.24527959086538
C        -4.49408011014942   14.92968478152844   17.47398531706942
H        -5.52866646864218   14.85180729989751   17.77480842030766
C        -2.48953977886569   16.21358277045957   17.22623442476199
H        -1.95256033212086   17.14417479238276   17.33395462198695
C        -2.05296746561986    8.92498269118347   23.37215609120597
H        -1.91163269311454    8.16192768510511   24.12328201929500
C        -1.96160459283563   14.52634480310665   21.02017862419910
H        -2.99332688693222   14.82899500782272   21.12368321025059
C        -3.81015805842399   16.12343472323271   17.63011426436026
H        -4.30641995649663   16.98171581066741   18.05781469498191
C        -3.31548619961662   10.74958194173612   22.47532179173247
H        -4.16197879896367   11.41850139151328   22.52541078830092
O        -0.83637822897299    8.86654410221201   15.48302319115270
O         0.90776041130348    8.83970732471116   17.61862729922753

