147
CSD_code = NARFOE | q = 0 | S = 0 | Stoichiometry = C74H62ClN3O2P4Ru | MND = 6
C         1.19988632573879    5.08388946713414    7.15559501478072
C         2.01653834706352    5.68529035786574    6.47840197919417
C         2.96964596524354    6.37435846897409    5.71323404909173
C         2.94558147565206    7.77928962800314    5.64353402291388
H         2.16343371790523    8.31126256803988    6.16738880131536
C         3.89868585782666    8.45596239488617    4.93156198480245
H         3.89509160111447    9.53500146688758    4.87382146775931
C         4.91591124344563    7.75434729563782    4.25516890629203
C         4.92584402590574    6.34974189477756    4.30681525311899
H         5.70737837629806    5.82330277283727    3.77967704108416
C         3.97591521840386    5.67293927465398    5.02695239934953
H         3.98953622706492    4.59283100801666    5.08156183943953
C         6.85441026671383   10.28866584582096    2.77665942410341
C         7.47669849387448   11.45459906451768    3.25899499170802
H         7.38246592863718   11.69053543569605    4.30842421571756
C         8.21359199118819   12.25076941452448    2.42359038715961
H         8.69246830265040   13.12941422391472    2.82729254032349
C         8.34988912054444   11.94745588582653    1.05714800930244
C         7.70293440403557   10.79487509929943    0.57883343095831
H         7.79305446753077   10.54169398913027   -0.46891804166163
C         6.97707488831421    9.98085229176895    1.40834870594521
H         6.47757878694619    9.09855968000732    1.03533955647308
C         9.10895620613863   12.74822532999585    0.13712945964131
H         9.11134471889896   12.37830663206784   -0.88009914101439
C         9.79376162001864   13.87561003765445    0.42639062152297
H         9.79211661212614   14.24566545277819    1.44271460140268
C        10.55789943274783   14.67335340093011   -0.49585636188796
C        11.21492177321973   15.81724988635992   -0.00925533968409
H        11.12821458095737   16.06510915286986    1.03860350018819
C        11.96159418414625   16.62187628442248   -0.83493345953036
H        12.46651603177573   17.50008591177491   -0.46255053510745
C        12.07236289790532   16.30009668071316   -2.18674215700796
C        11.43139228443467   15.17158356132474   -2.69665402036031
H        11.53352391170931   14.94503212978423   -3.74707907845659
C        10.68708152228682   14.37339685658538   -1.86222260152058
H        10.19721475993970   13.50421277300105   -2.27083947583187
C         1.00667022415906    4.81593400613084   11.79505001095303
C         1.88053973173015    5.49926370259141   12.64049066092040
H         2.55544251933574    6.23999380162266   12.23230166310605
C         1.87492641771317    5.24983853301830   13.99854016810970
H         2.55422429900810    5.78639514394490   14.64521631319986
C         1.00019581155920    4.31524677642834   14.53255303380579
H         0.99921688549943    4.12245249754611   15.59535152841914
C         0.12828681062790    3.63671557553828   13.70077329590350
H        -0.55934980021229    2.91049976194517   14.10928683697523
C         0.12905989792293    3.88537827332054   12.33761830646793
H        -0.56529268516437    3.35574034737480   11.69980608455551
C         1.24644100519744    6.94669066988038   10.01667083121009
C         2.12254310790796    7.62127586871097    9.17356722359325
H         2.73480851079973    7.06867032386368    8.47906195139415
C         2.21155770358065    9.00063063225423    9.22108725694237
H         2.90047435279742    9.51351193081920    8.56572737613877
C         1.43240028778266    9.72110644829595   10.11007181275291
H         1.51437183966066   10.79719599009637   10.15408177549730
C         0.54980413987006    9.05661564827764   10.94560629125290
H        -0.06359317133848    9.61294334284109   11.63998645238054
C         0.45083942130117    7.67884284438998   10.89567955305990
H        -0.23912233520324    7.16536507302265   11.55181725532564
C         2.85022253587686    4.56479013369864    9.74576090822264
H         3.18419345394725    4.89472324002442    8.75719451743276
H         3.50811405817397    4.98101469603024   10.51459599901587
C         2.81860164775689    3.04346784559659    9.79603066287597
H         2.51487323805685    2.70968505846426   10.79486191546070
H         3.80034231821147    2.61910604673953    9.56958242447146
C         2.62189385593147    1.95805547182971    7.16525140614701
C         2.25959779354829    2.33855796584618    5.88176098692162
H         1.36368136942087    2.92807198330964    5.75074017506762
C         3.03412566928579    1.97895838456831    4.79251442133587
H         2.73939619597899    2.28542613495436    3.79877235768488
C         4.18208488135520    1.22929664047488    4.98258232273033
H         4.79483245098822    0.95034888460104    4.13803369033291
C         4.54109584272648    0.82780028883072    6.26076983118859
H         5.42836031965757    0.22913997101765    6.40806930671995
C         3.76542188093528    1.18323065981749    7.34782917728875
H         4.03718868962042    0.83812852059760    8.33641152487052
C         1.14712083183980    0.79456021219645    9.25140792894160
C         1.16202755309333   -0.34563201274998    8.45452748147371
H         1.50324628873498   -0.28514875592443    7.43135992096233
C         0.74639610779418   -1.55995619173820    8.96854329769980
H         0.76765698630961   -2.43939212849828    8.34152865262752
C         0.29798688287992   -1.64839647844434   10.27496508822958
H        -0.03567321671967   -2.59663028871930   10.67029292923292
C         0.27615367612767   -0.51657514422702   11.07271638339378
H        -0.07719451670937   -0.57780249565151   12.09171017311363
C         0.69608575017041    0.69766039517637   10.56535821080379
H         0.66179311087185    1.57708466675791   11.19176971001693
C        -2.71035047806943    6.21528637994954    9.41754418333307
C        -2.39481770266251    5.78744273384409   10.69815605796723
H        -1.53243893666711    5.15089808981120   10.83778433872366
C        -3.17821930236095    6.15506933477798   11.77784992670540
H        -2.92393149153182    5.80928301832181   12.76949068155187
C        -4.28452995064269    6.96228722637258   11.58084629914131
H        -4.90307913059561    7.25005047929930   12.41832339571659
C        -4.59759650004692    7.40879877359072   10.30520844282809
H        -5.45457436151010    8.04924538619748   10.15323015643234
C        -3.81624138370397    7.04235100686001    9.22668811270537
H        -4.05190231076390    7.41693974220874    8.23926199975350
C        -1.20000867885156    7.34877835327812    7.33891476575209
C        -1.20691248410868    8.49194902626897    8.13092078272710
H        -1.52263635819884    8.43250201046924    9.16192810998966
C        -0.81678456467026    9.70974382000443    7.60453344499708
H        -0.83198767784538   10.59007973856997    8.23014464422139
C        -0.41002135409073    9.80200733482015    6.28482504235534
H        -0.10475876982479   10.75380326646661    5.87557289455773
C        -0.39127922691885    8.66604207721561    5.49189332873001
H        -0.06930105014582    8.72908407822806    4.46243764376011
C        -0.77688559453647    7.44701233322545    6.01651185967595
H        -0.74633599044195    6.56644093013928    5.39292021694870
C        -2.91229882811408    5.13617463926803    6.79089297104137
H        -3.87318588821969    5.62276002944254    6.98053208285932
H        -2.56830892793390    5.41522826273966    5.78850755507885
C        -3.02954821652384    3.62114817365940    6.89480569490771
H        -3.68691589969296    3.21095404200785    6.12087740127354
H        -3.41182396634660    3.34417787461052    7.88183753141459
C        -1.52611720892960    1.14309717099285    6.71551780889263
C        -2.48377397104044    0.50451208956732    7.49517959403672
H        -3.14066089724244    1.07689179941206    8.13166810015612
C        -2.58930132818585   -0.87472541810843    7.47104198141412
H        -3.33315805175070   -1.36267659289584    8.08370808096140
C        -1.75374695269051   -1.62712403877333    6.66439806181983
H        -1.84749825633720   -2.70305268511807    6.64179879895442
C        -0.79730109872373   -0.99655607808414    5.88559583435981
H        -0.14048536829485   -1.57837209825848    5.25453836086832
C        -0.67593941411765    0.37914641725798    5.91792925394175
H         0.07557351436052    0.87041777375161    5.31319434915153
C        -1.19751217859744    3.20926272100553    4.88336357350955
C        -0.33328128614504    4.15421697692356    4.34604227430858
H         0.32076692200361    4.71065111338239    5.00530926755405
C        -0.29706817571268    4.37734651985199    2.97970186933503
H         0.38332746741155    5.11343111002505    2.57619864210343
C        -1.12731985003670    3.65827392949367    2.13833625593566
H        -1.10004497818843    3.82867170606567    1.07219136639965
C        -1.99569763835316    2.71560317650732    2.66754403355121
H        -2.64587958381384    2.15261123163371    2.01360655443831
C        -2.03340242187054    2.49206310819057    4.03037437523248
H        -2.70659752346136    1.74802233774891    4.43542948596261
Cl       -1.58932026154356    2.71871492421436    9.62494559973225
N         5.90223127870952    8.34492859433802    3.51912047446061
N         6.04083872106303    9.60373295062713    3.61433499039113
N        12.84460851117508   17.12927439785435   -3.05240793378538
O        13.38938917277521   18.10735840796047   -2.57099138748992
O        12.91885315998903   16.81639293043997   -4.22787974772370
P         1.10336893961911    5.13183622214353    9.98830389517279
P         1.55997705086746    2.43293789365551    8.56938208137055
P        -1.64638651044180    5.71882395643297    8.02319721531539
P        -1.31409337014016    2.95088886538775    6.69796994459668
Ru       -0.06145958620656    4.06043790989198    8.30759830204660

