145
CSD_code = NARFEU | q = 0 | S = 0 | Stoichiometry = C74H60ClN3O2P4Ru | MND = 6
C         1.05234781987374    2.98845224264340   20.70045459940008
C         1.89444553578999    3.61005743365957   20.07480394535876
C         2.86719403243733    4.31550451081577   19.35001604800214
C         2.85770870269083    5.72194840257530   19.32349419796881
H         2.07906837245307    6.24587994522606   19.86063923959254
C         3.81729187686170    6.41031818098484   18.63132141027459
H         3.82259650482505    7.49049412482957   18.60336411120485
C         4.82761119503257    5.71929154605001   17.93411875038379
C         4.82934168715632    4.31380308123291   17.95196234430727
H         5.60801395825587    3.79579573538325   17.41230053681228
C         3.87205203270908    3.62522074625987   18.65060505468851
H         3.87683056072345    2.54402086887460   18.67562333888757
C         6.77231657302477    8.25206561103768   16.46508815008628
C         7.38039191270355    9.42918546010851   16.93608613143325
H         7.26474283713833    9.68867536030202   17.97761553514967
C         8.13097943515369   10.20852243294727   16.09458783147652
H         8.61197173146000   11.10440985132553   16.45985357073883
C         8.28108012414748    9.85661105040049   14.74365713377639
C         7.65724113660844    8.69554111628811   14.26437994578115
H         7.77386957753146    8.42685323241407   13.22402198090745
C         6.91972011305482    7.90545091897531   15.10843593542985
H         6.42904514907337    7.01067445963957   14.75405551304439
C         9.04621295013958   10.65796439974792   13.88603622973575
C         9.71279707990135   11.35154314006400   13.14904359202671
C        10.48762326413813   12.15343285034598   12.29942369163457
C        11.10931687376638   13.31024933648633   12.79398121859849
H        10.98166306502801   13.57382724810795   13.83297885933442
C        11.87154035169088   14.09619291940863   11.96297050110762
H        12.35847160473487   14.98975836627175   12.32273528760864
C        12.02342372598985   13.73658229099536   10.62419591568314
C        11.41154447943675   12.59017898596034   10.11819222690211
H        11.54937854555868   12.34025597851706    9.07726380757476
C        10.64930223864532   11.80483911468376   10.94983920188288
H        10.16900567437125   10.91396006423566   10.57444976919306
C         0.63260469133421    2.54891707869712   25.31287552105682
C         1.46618973176965    3.19478295799330   26.22571831494841
H         2.16167415465102    3.94823533795776   25.88014817519107
C         1.39436071127726    2.89209437453116   27.57100900933448
H         2.04282462502453    3.39988897485873   28.27041574213014
C         0.49269426053513    1.94093128343204   28.02498097565208
H         0.44000765878265    1.70642521055781   29.07804948270675
C        -0.33994083595342    1.29969356972793   27.12610820371744
H        -1.04847296086873    0.56109908582522   27.47190271805208
C        -0.27282420856859    1.60196665584323   25.77551102914243
H        -0.93709950392440    1.10108043735224   25.08464654381795
C         0.95423908486389    4.74663172248606   23.62967009062443
C         1.86040437171195    5.45280211596133   22.84613929043392
H         2.49867950109694    4.92654564638272   22.15441738984611
C         1.94513294351490    6.82937389575313   22.94904124784543
H         2.65773390767322    7.36716558815211   22.34064578649761
C         1.13102245924901    7.51569203448858   23.83379888591877
H         1.20940411464978    8.58938214962426   23.92147776265195
C         0.21752774629881    6.82009338988888   24.60852151276054
H        -0.42388464189662    7.34977302428599   25.29841235458335
C         0.12342386895204    5.44505670272906   24.50351854479159
H        -0.59079343444586    4.90728758662146   25.11247444601968
C         2.57404225824552    2.37708809091410   23.34573761742917
H         2.95336144331929    2.74498044511558   22.38736757626160
H         3.19414160160877    2.76391380217284   24.15999108765446
C         2.54372754554450    0.85483163444514   23.33645386191837
H         2.19871071270401    0.48295003572387   24.30803582743636
H         3.53531605781175    0.44038820965054   23.13597067357577
C         2.46269151353529   -0.14540754081023   20.66501399579785
C         2.16063535693187    0.27861130414464   19.37963945402114
H         1.27589507596971    0.88003481878595   19.22807050352793
C         2.98008979982415   -0.05360031972744   18.31476000594128
H         2.73146547732522    0.28549727379656   17.31896260736552
C         4.11303997745547   -0.81864019333772   18.53156800395548
H         4.76012225879581   -1.07707448670972   17.70632430071936
C         4.41259469638393   -1.26223480331349   19.81118632148787
H         5.28833486486250   -1.87248631211196   19.97849887585985
C         3.59187952447819   -0.93456567688816   20.87357899202757
H         3.81708204891924   -1.31205931659887   21.86205929074207
C         0.89164785076001   -1.36915376932067   22.64166413217323
C         0.93387703851452   -2.48056892959630   21.80600897336080
H         1.31916399980270   -2.38657599158497   20.80120534327322
C         0.48927775189500   -3.70914983320023   22.25804682612951
H         0.53179093548752   -4.56580928248014   21.60128191577095
C        -0.01533857566860   -3.84041238652850   23.54012625955023
H        -0.37191988168962   -4.79934712353283   23.88651904804797
C        -0.06456018574194   -2.73740347160562   24.37610214570534
H        -0.46198994442264   -2.83192458063755   25.37614193730966
C         0.38393398790877   -1.50914369943556   23.93078180129556
H         0.32797480364472   -0.65222666571923   24.58619300530053
C        -2.96020752971482    4.05017041483851   22.80904269974084
C        -2.70697398674109    3.57463954164565   24.08665994363115
H        -1.85318474660915    2.93058231081443   24.24363820950710
C        -3.54053516147040    3.90484983818475   25.14053828831695
H        -3.33450356640276    3.52202334105537   26.12978194287009
C        -4.63478799092409    4.72254113213555   24.92077471476823
H        -5.29205412329887    4.98170926996787   25.73785463357155
C        -4.88579828204380    5.21653672370071   23.64891732140022
H        -5.73348237005616    5.86503749435885   23.47993232232662
C        -4.05447880463171    4.88719014980797   22.59609348176697
H        -4.24225668364446    5.29822767596667   21.61291411205091
C        -1.34921415291460    5.25429416293178   20.84945702441865
C        -1.39416158889737    6.36774332602787   21.68159397623820
H        -1.75930417507339    6.27132107454326   22.69334342531245
C        -0.97854990912312    7.60313958553724   21.21971597667834
H        -1.02444626720121    8.46014180168669   21.87552608624839
C        -0.50757313198642    7.74265583090604   19.92576167052026
H        -0.18267457354009    8.70819315702647   19.56692562834513
C        -0.45045757514294    6.63641706801055   19.09365423038472
H        -0.07829254050557    6.73624626458268   18.08422758472296
C        -0.86194994683198    5.39993118929079   19.55374400533593
H        -0.80114530341242    4.54274598150670   18.90051044581042
C        -3.03508667824927    3.06867360441363   20.13726911164180
H        -4.00270764306468    3.55321305051011   20.29540466038892
H        -2.64020900076872    3.38053173921004   19.16367243629013
C        -3.16158397585606    1.55151870449919   20.18271690869956
H        -3.78150935462447    1.17139289317959   19.36383731895160
H        -3.59231021387443    1.24223278488703   21.13976218439674
C        -1.65839439282000   -0.92564367031299   19.98717711361119
C        -2.65573519330908   -1.58751835117022   20.69431422108924
H        -3.34138031089430   -1.03556328567521   21.31844770838396
C        -2.76449386695581   -2.96439034274417   20.61414051589171
H        -3.53946212601276   -3.47065920077334   21.17089194919554
C        -1.89240074255467   -3.69103251154172   19.82264558880025
H        -1.98864708298708   -4.76488175613618   19.75550757693830
C        -0.89643852399932   -3.03721871126486   19.11584368884833
H        -0.21119483332762   -3.59877107450166   18.49669960270647
C        -0.77237506280862   -1.66425519562232   19.20483637041145
H         0.00957429236152   -1.15504911418246   18.65612408160713
C        -1.23585673142666    1.20244210400569   18.24867503858574
C        -0.34623688530691    2.16413916049715   17.78798647596290
H         0.27493315065702    2.69534780357228   18.49772182577752
C        -0.24369276052003    2.43622231538316   16.43397187955903
H         0.45597745496893    3.18475350212367   16.09081038181857
C        -1.03252853253867    1.74961772550462   15.52810016097000
H        -0.95307078079557    1.95759784973053   14.47127038941610
C        -1.92603942241827    0.79059281344326   15.98049755732014
H        -2.54368945846063    0.25250093615330   15.27599745946392
C        -2.02995438888148    0.51838260432413   17.33099448588590
H        -2.72268992632589   -0.23793246479464   17.67590564503520
Cl       -1.85699463082126    0.54373735309608   22.94199148612645
N         5.81290870266289    6.31849937086664   17.20377118209424
N         5.94593857654151    7.57884463167351   17.30634429630736
N        12.81596785890879   14.55284045682865    9.76029393853440
O        12.92929674345697   14.20998007645145    8.59705595645851
O        13.33598814816385   15.54729123190592   10.23374169374266
P         0.81641916175090    2.93410160201192   23.52653617091710
P         1.34044097706794    0.28920244256554   22.03467033071207
P        -1.83055336929685    3.60158851591079   21.45066637736654
P        -1.44040808954627    0.88074287301216   20.04547849855183
Ru       -0.26500564015629    1.92909913665799   21.75375099019209

