70
CSD_code = NARJOG | q = 0 | S = 0 | Stoichiometry = C25H32BN8O3Re | MND = 7
Re        6.85741625723449    6.01951085821573   12.44269858325011
O         7.35150515015725   10.16805590281879   11.56373552037889
O        10.91960710661913    5.39786921325512    9.08308903232802
O         5.78899657277745    7.18340108511325    9.81823005757731
N         4.89191998890827    5.20527825010551   12.93399983568368
N         4.76627847948098    4.00164052794439   13.48905161701789
N         7.40111882551401    5.06771231952822   14.37514534545657
N         6.93804938223218    3.84753266773458   14.64679849702787
N         7.07123895706040    4.01005509912325   11.61696461279375
N         6.67103614667477    2.95710727791930   12.33702324415696
N         6.02346833694879    7.76334119111515   13.59542213849397
N         4.79735684097488    9.54620339933652   13.97241767332681
C         9.10194094789988    6.14742060876929   11.73342097051752
C         8.81105624867470    7.23052539064543   12.60732193320698
C         9.10464400617407    8.55779338934024   11.90483408095667
C         9.07234784147017    8.20128688109536   10.41544918141205
C         9.35411194886521    6.69159301404351   10.31448216424838
C         9.92891677535069    4.95725404595415   12.16827379499187
C         8.17829228577819    9.68448399135022   12.29576046021523
C         8.39120073890429   10.19042953178266   13.70617188087884
C        10.74740212282670    6.31846349218132    9.84533994406644
C        11.92543864237915    7.12149972894205   10.36575200570799
C        12.55637705778842    7.91996459292393    9.22292390363855
C         3.47739358726727    3.75318331479776   13.75354108006539
C         2.73790170823849    4.84675805167241   13.35284249608482
C         3.67992923660221    5.73488473479316   12.83780656381606
C         7.36738937967307    3.44342588833895   15.85110682077809
C         8.14442965946423    4.44645679661218   16.38746916472210
C         8.13050436656163    5.44576198561902   15.41499725046524
C         6.85589919668679    1.82922320180976   11.63531672633335
C         7.39657435323085    2.16488230640514   10.41382727361388
C         7.50808064811101    3.55327729755339   10.45081661180952
C         5.35451369929060    8.75454333589315   13.04282287094418
C         5.12361518453038    9.02378159404004   15.18794509253214
C         5.87870987819295    7.91504578789172   14.93973831847056
C         4.05264324840001   10.74721977070854   13.72097193499920
C         6.23635987959981    6.75659386003543   10.80169639136172
B         5.99423913791013    3.10196101071534   13.70123883386957
H         5.68626529346456    2.05047301170090   14.15082394685159
H         9.16864502981255    7.18520900253413   13.63317094194175
H        10.11205774919671    8.86551961565596   12.21705782878993
H         8.07256637652280    8.40826934731623   10.03843366636987
H         9.77976665023017    8.79548375235830    9.84032999934885
H         8.66736938553034    6.22839480583321    9.60228459888547
H        10.97440114737019    5.25369182214593   12.27324278565836
H         9.88053494469255    4.15637743009823   11.43384865541587
H         9.59606531379470    4.57254265603812   13.12960601423389
H         9.39072302744276   10.61070414203388   13.79612657881099
H         8.30353924308835    9.36771774803374   14.41017757169728
H         7.66193217683017   10.95919442973903   13.94864976377751
H        11.62922073428063    7.78042276251259   11.17771831999824
H        12.66998500774209    6.41250860079107   10.73652722147554
H        11.86664911833372    8.67121440175566    8.84520591449618
H        12.81390280438587    7.25042202794032    8.40620957969175
H        13.46001369021599    8.42002591456062    9.56440886267236
H         3.17036813196019    2.82956124511694   14.20083588476290
H         1.67766228350155    4.98032522168146   13.41724210066839
H         3.53087651371629    6.70205774406303   12.39770136242063
H         7.09741436974021    2.48397993163695   16.24293833492135
H         8.64657057146539    4.46041345986781   17.33321093750281
H         8.62201067023224    6.39935423745045   15.45442060617921
H         6.59389070740536    0.87432436453453   12.04389598767347
H         7.66972016432733    1.50916090996486    9.61349854548661
H         7.87880976834969    4.21349629944062    9.69305587361157
H         5.28006828351766    8.93330810945047   11.98878488420596
H         4.79922590584060    9.46275386823645   16.10889790181343
H         6.30932304160169    7.23349678563487   15.64588957339317
H         3.40723561021733   10.96570635483108   14.57040330907782
H         4.72943307819714   11.58944495989203   13.55993041020993
H         3.44404938253812   10.62132364102853   12.82672813075678

