69
CSD_code = NARJAS | q = 0 | S = 0 | Stoichiometry = C25H30BN8O4Re | MND = 7
Re        8.39136031151229    3.50615335246042    8.39990320768262
O         5.34979937511204    3.49190799683911    7.10916672274609
O         6.51309229573588    6.78014587127531   10.25400858898299
H         7.30600551551137    6.58146542699962    9.74238971807249
O         2.89455432383597    5.24747493507839    7.17840078994998
O         6.65592273357075    2.19702288766662   10.56319607385777
N        10.17551305026028    2.46395969840114    9.07995916774934
N        11.03973372991750    1.96293495804226    8.19997905233598
N         9.76762111940860    4.31653899241937    6.92299285093356
N        10.63400749219883    3.50340112946528    6.32099176494945
N         8.28108912033132    1.79358657714257    7.10607574766494
N         9.38186489562849    1.36109491814957    6.48374836368686
N         9.16646044634139    5.05818095979203    9.84717989009523
N         9.68883397280668    5.93724180782865   11.79558091967940
C         4.74069455258762    4.06539653632510    8.27156758801431
H         4.86413568467930    3.36108591787584    9.10338262756576
C         5.51304991478004    5.37194413262257    8.55448589083111
H         5.00380988868797    6.21205767737171    8.06261292947475
C         6.82793431376288    5.12814940342828    7.81377950320260
C         6.56554047758675    4.08885648961738    6.88424138402384
C         6.95094311691659    4.04556597086891    5.42989395514129
H         6.18398692991306    4.57680780681717    4.86422126937811
H         6.97757599922244    3.01899740987847    5.07022663284562
H         7.90941451585305    4.52168976747203    5.25286255195749
C         5.62269740378329    5.69834774182441   10.04812445167825
H         6.00757377127387    4.80582322108539   10.56385266495419
C         4.27521505641942    6.08876708690570   10.64330008440645
H         3.86652633912695    6.94204720679663   10.10808027001239
H         4.40777956961976    6.36869191195769   11.68462014518404
H         3.58042370664166    5.25737173457815   10.57849973830752
C         3.28505397744418    4.26380333096851    8.01621447471032
C         2.19292994508492    3.59155882887693    8.48351428715124
H         2.19735210410402    2.76343668952816    9.16153246210084
C         1.06394557686512    4.20941858215194    7.89429182427070
H         0.03596570652886    3.94578985140258    8.03544805832156
C         1.55500436075284    5.20640868206411    7.11112673926268
H         1.07272381899183    5.92809718266345    6.48185008221016
C        12.08747914222501    1.42907052653802    8.84201418422889
H        12.89287958649986    0.97052965271143    8.30490929329938
C        11.89072920356935    1.59517891455677   10.19693452783560
H        12.53232711634090    1.28417666824816   10.99563151984808
C        10.66504416671082    2.25189337897682   10.29361295239967
H        10.12452001438309    2.55405129751095   11.16995254501849
C        11.37021555782235    4.18481972289716    5.43111294290833
H        12.12492325431187    3.69913042451113    4.84665564070015
C        10.96201597284352    5.50088656829007    5.45581324098169
H        11.33397036429834    6.31939302327800    4.87398043992496
C         9.94872312255759    5.52695646750788    6.41418390454631
H         9.36405335050762    6.37042837072016    6.73083692987397
C         9.09490051028358    0.26391290247118    5.76610945575824
H         9.84948718360734   -0.23529944218469    5.19250481144982
C         7.75704967907690   -0.02053449410118    5.93060746352176
H         7.20091017408082   -0.82636266180343    5.49800441244301
C         7.28850528877629    0.97345466248159    6.78915508311866
H         6.29901998016641    1.13557268756948    7.16947154666806
C         8.86686191271950    5.10997608923448   11.13139403013333
H         8.06827788919391    4.56849089531526   11.59708047983392
C        10.57042003405902    6.43601774599080   10.88442842138259
H        11.34395209230410    7.12582644453181   11.15139631752715
C        10.23905327679600    5.88132527197376    9.68364033720788
H        10.71176134555071    6.03129434064834    8.73408301600386
C         9.63950275020468    6.25632941184278   13.19326913122176
H        10.57456555167985    5.97517040345056   13.68209967966852
H         8.81690849498854    5.71366809853451   13.65454611654438
H         9.47857618187246    7.32712642694330   13.33060220891908
C         7.28239966428545    2.70445102502634    9.71937716084217
B        10.74637925025803    2.02167271464318    6.69293090011244
H        11.59543785325367    1.48657654136184    6.06395339495982
H         7.33381492194744    6.02369324567807    7.45990543771946

