70
CSD_code = NARJEW | q = 0 | S = 0 | Stoichiometry = C27H30BN8O3Re | MND = 7
Re        2.02745481465931   10.75822295222457    8.28742119822853
O        -1.06937315418064   10.76071379064124    7.21613758062732
O        -0.68555761663343   12.38016181418411   10.94452371384637
O         0.41293092643641    9.29220583217862   10.43949797157890
N         3.38909714571324   11.60878797963261    6.79825817731949
N         4.26102139049898   10.81264680334541    6.17945412074841
N         1.95009899478674    9.05403702489718    6.96762487880322
N         3.05092279232796    8.64434280193681    6.33077502088047
N         3.84702605054927    9.73740510893455    8.92986765077895
N         4.71322218436688    9.26060175551991    8.03805246182366
N         2.72571548339305   12.29365853913867    9.76691794637392
N         3.10713821343308   13.19338928257721   11.73500880836742
C         0.43199310176179   11.23721033001802    5.41124749295782
C        -1.56375198420429   11.36989985860183    8.40598488039657
C        -0.77118763848602   12.68803098265757    8.56457540332830
C         0.49573292576641   12.38482716375416    7.75542286514535
C         0.15076925893333   11.30623008975525    6.89101358267059
C        -0.50351699290676   13.09310122692850    9.99012397509931
C         0.02310180018842   14.50342965620282   10.12822690374742
C        -3.04524146898020   11.61251084794134    8.32768719386633
C        -3.77085343403130   11.78452956027526    9.50052899862094
C        -5.12462915548616   12.06123675018475    9.44766164262396
C        -5.76758600676974   12.16265982579148    8.22456801355959
H        -6.82633445063450   12.37396398389621    8.18467137963784
C        -5.04957447906603   11.98779180643868    7.05437210535471
H        -5.54763303260119   12.06225971847246    6.09828623673740
C        -3.69283328159948   11.71937321980554    7.10511902690731
C         4.98408097815782   11.51450044799255    5.29453295793653
C         4.56259499873409   12.82551326309643    5.34010781543244
C         3.55576016010616   12.82741789080910    6.30545992755472
C         2.77470872584975    7.54764566760798    5.60870331590240
C         1.44337657279183    7.23959707324961    5.78521098458002
C         0.96754201719975    8.21955719704589    6.65555857248145
C         5.77925250517831    8.74776271546794    8.66668815341781
C         5.59298210089922    8.90303404085620   10.02454967206737
C         4.35384135595476    9.53132139545749   10.13736325772123
C         0.96966924056812    9.88254251256829    9.60874948137554
C         2.36470294199967   12.32070400476914   11.03379815186961
C         4.00178248196080   13.74371961985968   10.86577294877979
C         3.75547089112147   13.17547277879429    9.65046745657743
C         2.98818715335261   13.48029124675148   13.13588561859369
H         2.08276652586129   13.01270087251333   13.51746466061615
H         2.93184761908521   14.55769660306635   13.29749502838132
H         3.84896582634126   13.08990797482161   13.68316861131791
B         4.40452531508224    9.32863393337281    6.53421144053766
H         5.25771266539829    8.81705544165350    5.89157646469445
H         2.96761876872316   13.66156577824134    6.63899446231047
H        -1.33143301560126   10.72284594981268    9.26119590604669
H        -1.30415167693766   13.51147284027718    8.06807453012279
H        -0.01894102901201    8.36004196599556    7.05299029406280
H         0.34546618727418   10.21327163970763    5.05488713430094
H         5.73999076498799   11.04499328921709    4.69850479208587
H         3.53126088943358    7.06442436786282    5.02410235232294
H         4.72304637880818   14.47396897401468   11.16991390533391
H         6.58947424466157    8.31021841478885    8.11933566221234
H         3.81532741950524    9.81780978901148   11.02030669425045
H         6.25006859213202    8.60293973024173   10.81480225195495
H         0.89660119129740    6.42711103434164    5.35301877998134
H         1.56670888031527   11.74260212468284   11.45585874454952
H         4.92245440430237   13.65585629930830    4.76741230694533
H        -3.12724118432449   11.57525217079064    6.19723407167622
H        -0.31281741849437   11.84037796305134    4.88905232718292
H         0.26907435727246   14.71567983853367   11.16535498825026
H        -3.26446782142108   11.69964549420155   10.45044214372922
H        -0.73608622729462   15.20617770450821    9.79125635623369
H         0.98251568545901   13.26042873083144    7.33282155862732
H        -5.68278797444183   12.19344427282642   10.36315303938905
H         1.41927957755568   11.62233788057453    5.17665455418243
H         4.25900689715744   13.35284071518308    8.72123717046167
H         0.90410964577012   14.62918964628592    9.50480222390681

