73
CSD_code = NARKEZ | q = 0 | S = 0 | Stoichiometry = C33H36PRhS2 | MND = 8
Rh        1.48526385375622    2.34075672916091    2.79690005239903
S        -0.78440317729891    1.95984994416209    2.17753620739385
S         1.06289538706344    3.93885629838374    4.53691861343179
P         1.55645493367152    4.20502888426545    1.49812294528512
C        -1.86052983314155    3.23919708113206    2.68327438152073
C        -2.65221479456023    3.90599534981798    1.70252788973407
C        -2.61552177561505    3.54921091655711    0.34031893942723
H        -1.96630481519362    2.73815775182113    0.04458644092759
C        -3.38311717431996    4.20409122451651   -0.58287319538168
H        -3.34371327380636    3.91729931107310   -1.62395309690739
C        -4.22811999947022    5.24993967025581   -0.18607553203704
H        -4.83174277196310    5.75709767751224   -0.92497287477123
C        -4.28535009509213    5.62171944310376    1.12794191672486
H        -4.93649779519508    6.42452628904726    1.44465919322939
C        -3.50600651986195    4.96632749285390    2.10310718761727
C        -3.55456878463002    5.33186613626025    3.46352495242496
H        -4.19410208204532    6.14930926619885    3.76431918542319
C        -2.82514928389340    4.64261999733711    4.38933949401837
H        -2.88490373838978    4.89966010272427    5.43788988834245
C        -1.98764122742637    3.57533742283855    4.01662484261681
C        -1.36031853329568    2.82801232163226    5.12920563140115
C        -2.20110691322371    1.97205600953970    5.86384938125363
H        -3.21112991972126    1.82281291280505    5.50788248690020
C        -1.76292120422347    1.34455840483413    6.99508355477787
H        -2.41304112745309    0.67551097792207    7.54084898970536
C        -0.46854848989183    1.59741360634603    7.49215407435176
C        -0.01071107564923    1.03518645533047    8.70142382306815
H        -0.67193310709097    0.37449895962498    9.24475816372182
C         1.23340372627406    1.32684317430069    9.18683297777798
H         1.57378460199797    0.89253189378078   10.11596252829233
C         2.07199995710161    2.20579533234496    8.48639319604777
H         3.04468399387440    2.44886276913532    8.89029575065583
C         1.66171551785497    2.75488559525128    7.30266013568268
H         2.29268575433645    3.44492941286530    6.76259382261178
C         0.39663977948639    2.45467483866210    6.76285225972942
C        -0.04927620465636    3.00428292006421    5.52794702132899
C         1.72166584255309    0.11359812902719    2.54661905293771
C         2.02710541099408    0.47200266431190    3.89900613275451
C         3.21314872382688    1.28016165475216    3.87308297623915
C         3.58538685908262    1.48000610680177    2.51251252629636
C         2.65203323865364    0.76525734407722    1.68504143776318
C         0.71753684046497   -0.89929164137860    2.10615261858106
H         0.02889503180139   -1.14050461581373    2.91089361162464
H         1.23675992315459   -1.80945799035565    1.79916955353591
H         0.13729938258203   -0.53421226548424    1.25986819615174
C         1.42328616893915   -0.19613418558193    5.09718434267768
H         1.73619190709788   -1.24210286966729    5.12398083941685
H         0.33539812864315   -0.16646275712395    5.05693873490480
H         1.73923998498508    0.28106293986675    6.02042018048137
C         4.05188130394809    1.69427732245049    5.03974689412574
H         4.23803962984001    2.76771459931475    5.03190100756313
H         5.01527436589793    1.18327577105780    4.98824015428598
H         3.57091678584427    1.43668874019363    5.97883076340801
C         4.89013628727783    2.06274245478207    2.06638032162827
H         5.65264600309749    1.28031158119430    2.07978802577542
H         5.21368339241597    2.85689341076347    2.73570914058186
H         4.83083212646119    2.45480669584385    1.05288638595255
C         2.79201863405715    0.46735907489167    0.22437180636961
H         3.16735873416477   -0.55050650324439    0.09922136663723
H         3.49117046261671    1.14689052972773   -0.25653098434628
H         1.83051050311657    0.53315339739816   -0.28132277401717
C         0.24576594114790    5.47530672879326    1.55338007891864
H        -0.64984440374260    5.10273304069475    1.06215383066617
H         0.59759886640222    6.37040261008122    1.04116176852669
H         0.01149604362380    5.71086538195411    2.58969024332630
C         3.02343413183963    5.25153363125355    1.83120457126071
H         2.96705244888431    5.58533078478931    2.86625831420934
H         3.02879282628638    6.11322917930841    1.16522627819221
H         3.93541709569852    4.67699225592296    1.69254645546220
C         1.67301973464257    3.92939673351672   -0.31049194555126
H         1.68317479654054    4.88468744854663   -0.83323790926535
H         0.80823592994471    3.34916824325342   -0.62759644994974
H         2.57728712894429    3.37332180060575   -0.54534877582773

