57
CSD_code = NARLEY | q = 1 | S = 0 | Stoichiometry = C30H24IrN2(1+) | MND = 6
Ir        3.72128391476907    1.61686577245433    9.13298106019663
C         2.26103055505450   -2.20330096056596    7.68145733160552
H         2.99160628703769   -2.59538298933961    6.98958852506296
C         1.06069872861543   -2.86311643697908    7.87604089610001
H         0.85551603727623   -3.77357867447146    7.33498204666507
C         0.12008549019617   -2.34892397456473    8.75307535506820
H        -0.81997990181799   -2.85790795297817    8.89752405581595
C         0.37698429577274   -1.17429876390941    9.43714724938559
H        -0.35972063702074   -0.76418008225252   10.11157388412568
C         1.86575681319609    0.74504256011409   10.00038779285712
C         2.87510774287274    0.78787977934740   10.96371371737064
H         2.80521979454621    1.55085493552794   11.73935828403709
C         3.45955198221703   -1.01145347097797   12.59218677537616
H         2.72766963939211   -0.60712119198342   13.27568417898057
C         4.20447743295208   -2.12222606437813   12.94758550265429
H         4.04918641323525   -2.58647553388699   13.90896865862648
C         5.15862197318634   -2.62730883298132   12.07948721162268
H         5.74763322802409   -3.48509676203525   12.36412386363603
C         5.36899444535757   -2.02523197352356   10.85161817329372
H         6.11970181495793   -2.41018891213868   10.17767762431867
C         4.80267184656025   -0.27442617830616    9.16437600125505
H         5.84195712432455   -0.16529224787263    8.85634894977132
C         3.81918859761534   -0.32221678025758    8.17322643842490
H         4.13736085792084   -0.25797117872312    7.13210529359237
C         2.53845670226686   -1.03725223992913    8.38239598225185
C         1.58879497516233   -0.51842081270378    9.26416779876288
C         3.64825821989929   -0.41575324217220   11.35271801185173
C         4.60628615353418   -0.92690554732536   10.47737556382086
C         0.73683139590123    1.71014786431537   10.05441297311368
C         0.15606792724214    1.99254131481816   11.26995939329778
H         0.52769411655142    1.51665464522765   12.16539094611413
C        -0.94213353141203    2.85710658842221   11.36915716536002
H        -1.37949106958149    3.04402619741979   12.33809654064186
C        -1.45715111496276    3.44532347649428   10.24830038219429
H        -2.30653006928620    4.10908513248043   10.31457097210330
C        -1.40826951994848    3.79660147385098    7.81512563462022
H        -2.25651460870567    4.45826557326009    7.91097141830225
C        -0.84912451419776    3.55432515674897    6.59252014326999
H        -1.24983037921452    4.02056272322455    5.70564577517660
C         0.25352982035624    2.69417243780532    6.48495798462694
H         0.68891981548811    2.51055222655249    5.51430331162607
C         0.77250587684270    2.08708611236370    7.59433927169785
H         1.61794414914198    1.42258384248494    7.48933744038424
C         0.21534953423675    2.30681428801670    8.87152453733982
C        -0.89408520104742    3.18830916297192    8.97972969630896
N         4.96707285227663    2.35491111132519    7.86449195929593
C         5.74961084973498    2.73064807743950    7.10450194350943
C         6.71412361682757    3.19692888914773    6.16748296492853
H         7.63442927303882    3.46190575339113    6.68892525797860
H         6.33232685520212    4.07696957323181    5.64941904270947
H         6.93048870226163    2.41748482643726    5.43635941786085
N         3.15949445304066    3.41257229863137    9.66655900590089
C         2.56177440111472    4.32505723790121   10.03819830738692
C         1.82621808594636    5.45423875704933   10.49147207448715
H         0.78496478752627    5.16548397373574   10.64145332311075
H         1.87510257622020    6.25313712593544    9.75191039945974
H         2.24008039230679    5.81269191612714   11.43390649066269

