45
CSD_code = NARMAV | q = 0 | S = 0 | Stoichiometry = C18H20Cl2O2S2Ti | MND = 6
Ti        2.66040405832343    2.09351199110737    7.05018226790701
Cl        4.23648317020956    0.76206737178008    6.33147759440615
Cl        1.21980405835914    0.68153039055233    7.88712189032090
S         4.21820069131949    4.32981389190334    6.24096891399442
S         0.91809791970900    4.24548153555031    7.66475259384758
O         3.41148132213059    2.66932797932778    8.47835888609514
O         1.87535068377102    2.47951156297223    5.57738382029383
C         2.99741077245846    5.71076692886565    6.36005613341607
H         2.43338087349567    5.66227172654862    5.42657465019397
H         3.57625046855602    6.63613913495017    6.38157721565023
C         2.07579771070060    5.68280900892388    7.56127113908523
H         1.45630768518702    6.58186243952538    7.55092473255592
H         2.64137340480533    5.64885634404193    8.49482257912953
C         4.38071993751478    3.49275366781842    8.82521907703319
C         4.90625937057967    4.39298606874398    7.88794115931816
C         5.92947971370761    5.26726858461870    8.21821815619131
H         6.31792057064983    5.93139985667086    7.46132835697905
C         6.44460158470479    5.27505479145852    9.50387184584125
C         5.91994399277717    4.38411689328779   10.44046488730020
H         6.32568912534343    4.38263314621048   11.44228375036103
C         4.90607622058231    3.49844187426407   10.13311386149701
C         4.33860320728349    2.52327788227234   11.11585106655260
H         3.26377210083374    2.68099365282832   11.22057206193956
H         4.47930408218381    1.50657840441428   10.74483762633754
H         4.81487168098113    2.62157448323790   12.08731345568934
C         7.54644354856625    6.21288415478975    9.89312686945468
H         7.87560256186130    6.80031988741274    9.04027450128537
H         8.39756493578519    5.65599953595888   10.28216171832677
H         7.20793672675286    6.89239192699872   10.67482407016449
C         0.92253623774570    3.26922478975637    5.12586305386000
C         0.32539439753570    4.20705697657665    5.98016256572714
C        -0.69004342446692    5.04231415545320    5.54185328349978
H        -1.13649653190290    5.73679162392065    6.23695811341865
C        -1.12173849296145    4.97545350868067    4.22742225726611
C        -0.51983519498670    4.05287719623636    3.37122160540087
H        -0.85586918110246    3.99794539973255    2.34546806944894
C         0.48638960836971    3.20353403488851    3.78707847613109
C         1.14052718780025    2.20080601292319    2.88985983820337
H         0.75121198548014    2.26519319010028    1.87743700911236
H         2.22005884449899    2.36260529374189    2.87613981211999
H         0.97154096481492    1.19512418649665    3.27867744144443
C        -2.21863618127105    5.86355935852107    3.72438138187124
H        -2.54975907367354    6.54929739844645    4.49928966847431
H        -3.07015650324919    5.26451777989276    3.40478114058142
H        -1.87845682176051    6.44147397759574    2.86633140227113

