109
CSD_code = NARMID | q = 0 | S = 0 | Stoichiometry = C50H52Cl2O2S2Ti | MND = 6
Ti        3.71233755825491    7.93483794588043    1.94936728240952
S         2.11549840767324    8.44324845578939    4.29102417537045
S         5.63599980540806    7.43495667879849    4.01421387682568
O         4.03152269531895    9.52298404732190    2.46398789103090
O         3.45489673548708    6.35212592990858    2.51269382637638
Cl        2.02677146282188    8.42093886187406    0.63598204687051
Cl        5.17713588549053    7.43966669977000    0.39823451632661
C         3.54537738265205   10.48177539959131    3.22098110044112
C         2.60485177653029   10.16014239450007    4.20687693652731
C         2.03587225759026   11.12878569724461    5.01773161070663
H         1.30007591540088   10.82102148566272    5.74175346303161
C         2.41064019055903   12.45245553630907    4.86850014667297
C         3.36708235190971   12.77259855265626    3.90099392384173
H         3.64666084848006   13.80851905613423    3.78942194353008
C         3.94368776105500   11.82746918156522    3.07859012450010
C         1.84938086737424   13.58044038032991    5.71883267335728
C         0.59935039940004   13.16771059056638    6.50810612895605
H         0.18507800693973   14.04232219760902    7.00595601574261
H         0.84367707365780   12.42884707009471    7.26776724818181
H        -0.16152653115945   12.76293444990379    5.84592005577004
C         2.94392310683913   13.98310582979406    6.71783632334042
H         3.80447715665953   14.40609975016461    6.20563507826523
H         3.27278550660367   13.10143702740658    7.26509862490318
H         2.56680777905685   14.70567605024874    7.43733073399132
C         1.43646182504555   14.71544707764358    4.79363027137898
C         0.69204235670312   14.40585956125689    3.65812834933794
H         0.45628956144862   13.37328600979795    3.44358948086789
C         0.26218082083300   15.39664888356216    2.79654046485257
H        -0.31132442960830   15.13321741577435    1.91993763766049
C         0.56622229440180   16.72275594786428    3.05565659676126
H         0.23300342309001   17.49965097066502    2.38363490540566
C         1.29960936785372   17.04279482771991    4.18303716835272
H         1.54115303296981   18.07411478905411    4.39643745727174
C         1.73003778367354   16.04787763064413    5.04602600789560
H         2.29951940640662   16.32910208336317    5.91784160519651
C         4.96124572275615   12.12223835335966    1.98919556817339
C         4.23287605421820   11.97411530247273    0.64441254255848
H         4.88725642932128   12.24879812751848   -0.17952523235387
H         3.36882288519829   12.63704714564644    0.63065689988749
H         3.88243596390190   10.95016977421771    0.49622181839756
C         5.54250378934225   13.53817595427559    2.08075264318027
H         5.98035815487210   13.72067521565454    3.05919348133961
H         4.77587980267886   14.28529520477746    1.88749005107733
H         6.32515052524026   13.65067298806865    1.33327850646294
C         6.10169957953917   11.12809871700923    2.16822573191773
C         6.64859263578147   10.98069870651381    3.44157075337711
H         6.26102847223704   11.57652194534241    4.25869919354851
C         7.66544776170090   10.07591046953584    3.68099962776868
H         8.06915649955019    9.97201574744046    4.67831018268641
C         8.15927230781027    9.29853575395846    2.64670008439696
H         8.94400751672733    8.58102531150824    2.83401597836426
C         7.63417851648042    9.44529883652545    1.37582048123676
H         8.00886515530066    8.84338349283239    0.56151094880199
C         6.61567932408653   10.35450690595987    1.13584783103563
H         6.22361221151411   10.44063589485837    0.13416021379735
C         3.26901505684588    7.82146762921678    5.59161185372089
H         2.90697054821262    8.22207474308685    6.54102318610893
H         3.12333463118328    6.73914728172923    5.58204200904684
C         4.73306825872797    8.18216797261321    5.44141286757922
H         5.26429754194701    7.86478734496285    6.34152036647381
H         4.86783320459002    9.25795962700413    5.30847750752298
C         5.06227481072277    5.74400084086344    4.10414273117904
C         3.99076551611945    5.41350977313775    3.26088328685013
C         3.52038993598455    4.08644409162131    3.25415143493757
C         4.14285438074527    3.15655015549374    4.06762374595247
H         3.78300622553992    2.14215587988258    4.05329686109195
C         5.21371885433279    3.48401975672227    4.89518362421671
C         5.66913466211963    4.79631491948962    4.90508985526828
H         6.50685474138272    5.08511125231221    5.52104299670991
C         5.88522715777391    2.48130127280900    5.82037928873838
C         5.53045419677437    1.02452660755694    5.48939572841455
H         5.74425346276925    0.79991675258520    4.44754808944862
H         4.48235200939203    0.81931108568391    5.69472440032351
H         6.13217469179262    0.36129223030374    6.10793104721294
C         5.39469320048962    2.78892582330632    7.24305997627497
H         5.73221762293554    2.02946261216016    7.94391252900258
H         4.30620856614882    2.79811998036722    7.25408997705668
H         5.74701713649257    3.76265369426520    7.57443492668837
C         7.39311842426803    2.61050437129494    5.66719972708115
C         7.92642287568566    2.67304562622269    4.38261878219759
H         7.26095040510977    2.67257443933316    3.53127108707490
C         9.29112320021353    2.74786113927675    4.18076198664995
H         9.68236172814115    2.79897454388526    3.17537982758963
C        10.15393786213103    2.75752846074306    5.26390595961758
H        11.22123207112295    2.81576769133117    5.11003902422254
C         9.63645139809138    2.69074764555863    6.54417207881492
H        10.30008388136357    2.69553766395969    7.39693260474943
C         8.26759408272063    2.61609859908753    6.74457609890483
H         7.89411153561137    2.56267087646505    7.75514632100312
C         2.35649894724067    3.78604736863470    2.32325626068066
C         2.89335409670895    3.85477741265070    0.88514973368249
H         3.25206413680938    4.85774006692569    0.64456963699683
H         2.12079631186752    3.57383670274139    0.17328214345823
H         3.72497975553747    3.15965862635173    0.77830885143018
C         1.74471013467006    2.39818012268648    2.55097476144503
H         2.45165512278601    1.61384575979508    2.28968143079608
H         0.86689499668161    2.28933130156976    1.91734429092582
H         1.43204126841632    2.27001207376029    3.58447783470660
C         1.28098888224243    4.82545327326789    2.61467084044684
C         0.91345072796503    5.03241292108311    3.94290494724010
H         1.39681440936688    4.45940612872408    4.72429948365115
C        -0.04851220256340    5.96538881553988    4.27996626435586
H        -0.31375061642906    6.11308653105605    5.31723404763908
C        -0.66359656364527    6.71450347756163    3.29086152699609
H        -1.40738158988250    7.45226216432935    3.55215800409697
C        -0.31221232347823    6.51397592861816    1.96868203193022
H        -0.78052398506593    7.09536841200299    1.18870668406883
C         0.64997969611202    5.57484938328878    1.63087574209536
H         0.90381576615055    5.44525683105880    0.59008069818902

