91
CSD_code = NARPIF | q = 0 | S = 0 | Stoichiometry = C46H40O2P2Pt | MND = 4
Pt        4.27293334780457    5.25330325005541    2.97052228448686
P         4.43529256279085    3.27215210397207    1.77526128372362
P         2.20579558626561    4.94069390957467    4.01590752957714
O         3.93107400378701    8.50208503743370    2.22269506206862
O         4.22307287714511    8.89548352180375    4.42989582689375
C         5.27849660013826    2.11004715941093    2.89351321389219
C         5.46078528333378    2.51394340515929    4.21139461942395
C         6.09889871842217    1.68509710110156    5.11560529421393
C         6.56579538318091    0.44770784432859    4.70331452453235
C         6.40941348569740    0.04972862441225    3.38463597332598
C         5.77281936879765    0.87757643912741    2.47788687970342
C         2.94785658562781    2.37513697327746    1.21667367404287
C         2.65189618569493    1.05522730486099    1.52768423771925
C         1.50218218167267    0.46965719276259    1.02669973156249
C         0.63876587661620    1.19369286163351    0.22249933474826
C         0.91412402073799    2.52059367086529   -0.06781494285263
C         2.06004024064157    3.10808127207869    0.43103848373628
C         5.51492081846246    3.12017740416356    0.30893568772035
C         5.06325386443204    2.80931450837652   -0.96719937113194
C         5.95755233168810    2.75281942992839   -2.02289736613101
C         7.30226065738393    3.00669868183236   -1.81610459885318
C         7.75721068787118    3.32364850539394   -0.54511604263963
C         6.86821913286233    3.38501280736739    0.50882660088404
C         1.78611581087246    5.54835969534461    5.68915701336713
C         2.60203710060340    6.52903228469009    6.24116893005141
C         2.32667806025504    7.04780620833046    7.49228053326508
C         1.22826388312309    6.59315259804259    8.20110872190607
C         0.41555149076711    5.60994638977937    7.66067870761277
C         0.69303245234167    5.08258600814137    6.41298133045252
C         1.44043196862762    3.28273814197198    4.09272152863084
C         0.34552396555773    2.88972543647329    3.33431062972175
C        -0.14917823578745    1.60220955830683    3.44684302482351
C         0.45343480284387    0.69242078829812    4.29811827427502
C         1.55960884651637    1.07175983764744    5.04195480736346
C         2.04724299128857    2.35931076070656    4.94108672883609
C         1.05264032407876    5.88267777560037    2.96837224687808
C        -0.28949965669741    6.08449881040207    3.27275567114885
C        -1.08436570883836    6.82781336115564    2.41891241937003
C        -0.54677188520586    7.37931503220603    1.26606039595587
C         0.79048828961206    7.18472787871434    0.96092391962824
C         1.58640685146604    6.43661677862880    1.80859891218160
C         5.91830252069905    6.37160126596420    2.44675008166905
C         5.26981607428489    7.02286313286911    3.54457561819316
C         4.40704996705339    8.17258737394812    3.28945210297560
C         3.38027990732516   10.04279962692874    4.35919952603424
C         2.14248360020572    9.82099728734060    5.18458951207078
C         2.02816361111679   10.36065061510512    6.45835824131444
C         0.90151102694388   10.11640161512964    7.22360717512788
C        -0.11751721344949    9.32374027388021    6.72466429011228
C        -0.00818947914259    8.78043146025272    5.45653318586061
C         1.11559027629103    9.02725132297598    4.68988542281734
H         6.90496952168721    5.94898464763699    2.62409342959264
H         5.80533736246558    6.83052209563848    1.46481805098367
H         5.73492047570820    7.01921368418765    4.53027226879672
H         3.12408790119611   10.21327053285868    3.30623253030935
H         3.96125238186537   10.88795198197107    4.74160631715572
H         5.10520518934903    3.50301428896089    4.50755965735353
H         6.23867095678208    2.00285918298525    6.13871756373963
H         7.06395606674484   -0.20379172904381    5.40638786322183
H         6.79029897093296   -0.90866031097252    3.06213869525600
H         5.66886105503433    0.57743440475734    1.44379041724138
H         3.31048330147046    0.48522217896734    2.16597446513623
H         1.28035594600172   -0.56015250293298    1.26645628271717
H        -0.25315636639797    0.72786674014746   -0.17038967146255
H         0.23507880728437    3.09510556269636   -0.68135352378249
H         2.28228651637829    4.14614882885661    0.21740007126600
H         4.01581224088432    2.60607243624206   -1.13859476430236
H         5.60004253707992    2.50824315576530   -3.01284500785849
H         7.99522461905637    2.96140728501245   -2.64328462960033
H         8.80563739956665    3.52558579827020   -0.38035363332950
H         7.21199577230370    3.63746613474076    1.50323353901109
H         3.45744677224780    6.88264929528452    5.68305864737139
H         2.96838123313928    7.80773979080059    7.91207016077959
H         1.00841037114657    6.99819784396022    9.17795193715629
H        -0.43725204470305    5.24767821285557    8.21719898257253
H         0.06894165575736    4.29679759754238    6.00933148825044
H        -0.12304207507979    3.58747614264825    2.65564506923866
H        -1.01074348591903    1.30900123927973    2.86463340110801
H         0.06388565217382   -0.31164579950391    4.38072156526366
H         2.03815775854905    0.36337026973325    5.70273740951925
H         2.90225040069104    2.66654387792982    5.52871912981282
H        -0.70560332139185    5.66760843353172    4.17912690332741
H        -2.12756387466626    6.98503348816880    2.65505099825306
H        -1.17197757699764    7.96710869197058    0.60973247850654
H         1.21627050876081    7.62530818220683    0.07206126106661
H         2.64815610334703    6.29602728574195    1.59136835829292
H         2.82487342375315   10.97661920520822    6.85080026086184
H         0.81975290275663   10.54375636402510    8.21265097151702
H        -0.99609370680844    9.13074363934557    7.32281953013775
H        -0.80108396072764    8.16417562315846    5.06056187708524
H         1.20112116473856    8.60594589170756    3.69909277611159

