57
CSD_code = NARQAA | q = 0 | S = 0 | Stoichiometry = C26H22N4NiO2S2 | MND = 6
Ni        3.35889924750998    7.23986253495700    3.59043531662425
S         4.58039981219508    8.93059630673543    5.18556816951212
S         5.85887904123466    6.59224882467021    3.07746654134050
O         3.08499191326474    5.34128311776113    2.88204728028402
O         1.88307344705317    8.64562804348511    3.78619803967782
N         2.70107206061282    5.08561794103111    5.10851202754847
N         3.03457849758377    6.37791359860413    5.18992887124806
N         2.60619461401306    8.99453805629613    1.65882845843531
N         3.51270982149710    8.05311379331989    1.94079176612917
C         2.66351866096591    2.62811345946816    2.41049979795131
H         3.03558544806552    3.25961664448740    1.61757726351519
C         2.38947416761151    1.29140426425807    2.19392893155289
H         2.54726372077630    0.85906195200244    1.21644300820215
C         1.91066902712266    0.50551395752456    3.22990179570636
H         1.69446115023774   -0.53931577237143    3.05971009396677
C         1.70737840067126    1.05909060394608    4.48463537161718
H         1.33200561997684    0.44403082454562    5.28969670978700
C         1.98109333434437    2.39494411694929    4.70787860561086
H         1.82467389511995    2.84155626124194    5.67690910905174
C         2.46108929571033    3.18819656091850    3.66913656747558
C         2.76344010342327    4.61613956129931    3.87487067361298
C         2.98617407263758    7.00370402012630    6.32881083860900
C         2.47322573794241    6.34139638290919    7.56957862836706
H         1.40961804166631    6.54985238230801    7.68295607041656
H         2.99852399356437    6.70820979146562    8.44745706228736
H         2.60108140979304    5.26613603569269    7.47240325718455
C         3.42462665137599    8.36948631109082    6.36534886712620
C         3.02807509594615    9.39453851971600    7.18646048368749
H         2.31478562632726    9.27127642414506    7.98111843707649
C         3.60075521549519   10.62905584902681    6.83446264365785
H         3.39066673748807   11.55079429398287    7.34737696543846
C         4.44119882681493   10.53937054324051    5.76752998728844
H         5.01008079595036   11.32013161252156    5.30349223756191
C         0.03265904589761   10.72173465472796    3.58461025022376
H         0.21001360866423   10.25316404728720    4.54114503279417
C        -0.92086897540206   11.71050625903974    3.43621377575675
H        -1.50572632322422   12.02909190047695    4.28694241042358
C        -1.12851776785546   12.29253032681866    2.19594622998260
H        -1.87588745256461   13.06410214020949    2.07979550519587
C        -0.37935996893261   11.88425138925540    1.10315229062553
H        -0.54555678346554   12.33814307311838    0.13687007634675
C         0.57700683184670   10.89717473415321    1.24561690326189
H         1.16530739467765   10.56555999666905    0.40483874900518
C         0.78799675068021   10.30932058214530    2.49002619005692
C         1.80122176873009    9.25458968945787    2.67411637733283
C         4.35535143793335    7.65491405377517    1.03391087638232
C         4.29304146547043    8.16178572469627   -0.37345747115273
H         3.82187223940854    9.14157589135363   -0.37327405634355
H         3.68369764511853    7.49060959849904   -0.97818497202341
H         5.28806278234639    8.21938843887030   -0.80667402449329
C         5.34851431613009    6.69089435993296    1.41257460171364
C         5.97026933033191    5.73203063424552    0.65347936194292
H         5.79621756275677    5.60968577351494   -0.40018574897924
C         6.80191177678286    4.88961980227280    1.41148872694171
H         7.35312135424813    4.06534161502742    0.99489028299307
C         6.82790846932641    5.21818752185350    2.73211024716495
H         7.38138000708651    4.75029097522991    3.52158850731290

