63
CSD_code = NARSOQ | q = 0 | S = 0 | Stoichiometry = C30H22N6NiO4 | MND = 6
Ni       -7.50426831345769   18.19432269051953   23.21805264169166
N        -9.47454041084470   18.85305075443737   22.25231126853154
N        -6.29815984457590   19.11561341414684   22.07871726238805
N       -10.07042883984622   19.24747116656049   21.13013970241092
C       -10.36039185098227   18.08680919481582   22.88666148121208
C        -5.90998721109721   20.30886696333520   22.56223342957087
C       -11.55444530447357   18.01377224848346   22.16029320995892
H       -12.42383752121732   17.45495116240305   22.43402531731460
C       -11.33527786828964   18.76680345293228   21.01809230397250
C        -5.86301681639503   18.72622966234469   20.88849315522105
H        -6.21824641234847   17.76457031409086   20.54177661283408
C        -5.05182154180219   21.13866566894576   21.84395785922565
H        -4.74930240513189   22.09306581903314   22.24347238565963
C        -5.00723568652113   19.49688275051816   20.11740924690762
H        -4.67587926989400   19.13690143667667   19.15686545511543
C        -4.59041752133325   20.72514872624536   20.60680654327102
H        -3.92163067989249   21.35121328343213   20.03580967204867
O       -10.83045158814891   17.05410009480076   24.96964661307757
C       -12.20024150936094   19.05188730177181   19.88757870749484
C        -9.97508909488186   17.44327079848662   24.19251444586029
C       -11.68012144946006   19.44878563718539   18.65494405535891
H       -10.61113203039257   19.52334292914273   18.51430877569315
C       -12.52188716821812   19.71854698661010   17.59254482537310
H       -12.10520733262067   20.02060815890254   16.64262338340509
C       -13.58366921159987   18.92768794198429   20.02249315065202
H       -13.99633805483254   18.62597659742001   20.97242945925326
C       -13.89349584599671   19.59717252836775   17.73944540255732
H       -14.54830272841533   19.80898727622425   16.90747914988255
C       -14.42015562746786   19.19820977896092   18.95731774260832
H       -15.48898003982028   19.09922875645947   19.07625887154817
O        -8.71546911864133   17.38839555057918   24.41597637440879
H        -9.58762265191409   19.83975149353938   20.47248795076897
N        -5.94846119192415   16.81750892616439   24.18363852822526
N        -7.31000063467245   19.69909888844584   24.35793477833824
N        -5.30914249691086   16.49843433315840   25.30586006874065
C        -6.16858928129160   15.66739681738851   23.54877901393457
C        -6.47093743859898   20.63233025580703   23.87485278110865
C        -5.63469935204373   14.59668225985555   24.27489154603671
H        -5.68360985673784   13.56444218021393   24.00077360228473
C        -5.09252754801844   15.16274233803022   25.41740866669564
C        -7.86491117125726   19.88060430159367   25.54820332059402
H        -8.51990996890398   19.09179905934811   25.89454648731401
C        -6.18179920376874   21.79022955837299   24.59360434556533
H        -5.50680048668595   22.52982739505702   24.19437871309987
C        -7.62580854028644   21.00683637833582   26.31973516502151
H        -8.10322480960425   21.11322422001301   27.28035125709572
C        -6.77076541964917   21.98239484073603   25.83078574088092
H        -6.56330743887201   22.87446656114051   26.40213818403897
O        -6.82700854364076   14.74463731409049   21.46520258609502
C        -4.41320781497304   14.55599704126926   26.54783916412073
C        -6.91825219261975   15.67959408787963   22.24274876672360
C        -4.33004153817675   15.20443586140770   27.78074576807415
H        -4.80005681136580   16.16741613713389   27.92156923160678
C        -3.67551815616446   14.61016549999750   28.84303919781426
H        -3.62239451440611   15.12182149389379   29.79309350547459
C        -3.82864624337427   13.29603934298020   26.41258178043785
H        -3.88339373686149   12.78807119130758   25.46249288240009
C        -3.09416045205064   13.36199103379103   28.69571237627426
H        -2.58364207273489   12.90050835455077   29.52770890644315
C        -3.17597828572668   12.70678926804674   27.47760790548962
H        -2.72733001726337   11.73166537315040   27.35852296236539
O        -7.59598795716463   16.74282945725144   22.01961770626048
H        -5.03803587440353   17.21252969024319   25.96386860615829

