25
CSD_code = NARVAE | q = 0 | S = 0 | Stoichiometry = C8H7Cl2N4O3Re | MND = 6
Re        0.36886074780438    3.43744019494530    4.89174359991829
Cl        1.64833083325860    1.63526551112152    4.53670249511561
Cl        1.64949484101315    4.60162940368074    3.47167441426194
O         0.85773830186649    3.97460700625803    6.38743330395289
O        -0.86209891208190    2.83330224627677    3.21003138194936
O        -2.82806688217921    2.45992042773301    2.20778185244203
N        -1.14762536230764    2.17719593003931    5.78599800706538
N        -2.44324868990030    2.39504274221611    5.53308086259279
N        -1.14764675394012    4.97715135073845    4.77996191552527
N        -2.44309973318206    4.64768738290755    4.72295913603903
C        -2.10648420929481    2.79056669851859    3.10533948910156
C        -2.85085332793392    3.29175978275529    4.48913195906094
H        -3.93474827732300    3.24636200059903    4.36224144330505
C        -1.07182084915578    1.19936064849749    6.67185611043946
H        -0.11569151023419    0.87065942767436    7.02749547906826
C        -2.35570241031697    0.75745460245702    6.99103417884109
H        -2.62387192703468   -0.02174028068756    7.67287862597055
C        -3.20527417947514    1.53871631238792    6.23884370451992
H        -4.27337845843925    1.53575891337509    6.15862137234708
C        -1.07231226830443    6.29509288097534    4.84377526771256
H        -0.11635879553223    6.77534188995452    4.90935204796141
C        -2.35645866620492    6.83856751872877    4.81051601468877
H        -2.62490464021003    7.87334159740347    4.84333255827017
C        -3.20563091908289    5.75705276051453    4.72555847697077
H        -4.27374795180960    5.70816305092997    4.66195630287931

