67
CSD_code = NARVAF | q = 1 | S = 0 | Stoichiometry = C30H25F4IrN7(1+) | MND = 6
Ir        2.69181667657468    2.80031750092606    8.09605820997722
F         7.70757995437936    1.65842807059644    7.09804266715438
F         6.30854026600782    0.41982349390306   11.39648428240901
F         2.08258921100217   -1.72319990222644    5.12710115375658
F         0.05887496745230   -1.55303935439582    9.35073857706763
N         3.82548547158223    3.09321684403354    6.45714715880653
N         5.08422884538846    2.63243380860901    6.53673864107603
N         1.11628363478299    1.06898215519294    9.74005117973871
N         1.64615024202775    2.30230208981153    9.74389794539680
N         1.00574982365856    3.87248088587054    7.36527627065338
N         1.04713485573454    5.19108716526830    7.62131340624827
N         3.05788739988404    4.85499718118477    8.70565998581097
C         3.67084194943678    3.59458670134444    5.23732978075129
H         2.73921898767659    4.01841111321987    4.91694325965165
C         4.85644771878542    3.45691911212567    4.51811472476582
H         5.04431841378612    3.76218827756299    3.51047800725880
C         5.73700387084106    2.83715634505645    5.37928376643939
H         6.75417387390327    2.54328333470347    5.22373922016692
C         5.46127066710607    2.04827813785921    7.75308616400535
C         6.73920735381460    1.57270555930130    8.02721021424590
C         7.04620291188388    1.01487741218262    9.25287324937608
H         8.03657616372995    0.64530587880763    9.45903888936951
C         6.03729010587847    0.94857560225029   10.19663306593877
C         4.75565566657993    1.41579447929515    9.94846922474228
H         4.02288584542313    1.32875778544306   10.73539081194766
C         4.43724223212747    1.97548203072289    8.71899575603537
C         2.11997889558036    0.91570264431224    7.59927535662833
C         2.35970294868516    0.20467465739774    6.43276822177052
H         2.95334207890327    0.61603243911682    5.63164881067012
C         1.83404431811857   -1.06783627112140    6.26738583539728
C         1.06043927382632   -1.68197013013230    7.23552436649692
H         0.66073110684205   -2.67202576124808    7.09383306935740
C         0.81590601636884   -0.97948274218317    8.39916011630351
C         1.33078510931014    0.29862924999910    8.58991447207348
C         0.46758619856192    0.82924633763553   10.89291447861171
H        -0.02794265001438   -0.09592015016225   11.10185481499577
C         0.58751411408654    1.96067421453609   11.67194471024769
H         0.19236303490376    2.11449501101034   12.65377740675534
C         1.33554177265961    2.85607776985495   10.91026117034067
H         1.65486289051320    3.84807412558711   11.16438703848620
C        -0.08418918309205    3.64783455988942    6.66199608028062
H        -0.33236047568115    2.65775642328995    6.33422108917392
C        -0.77837252973947    4.84764303328550    6.44934019046424
H        -1.69470107119730    4.98147265590307    5.91430068777074
C        -0.02945915769879    5.81030383770403    7.07508446042179
H        -0.19763361413036    6.86386262247572    7.15196312682628
C         2.10514440538988    5.72458465269657    8.35822149004822
C         2.14798685526832    7.06937312292412    8.70569996019369
H         1.35042386638267    7.72297469124303    8.40187121471738
C         3.21767586763885    7.55703138673463    9.44826071216474
C         4.20224999444863    6.62964283760904    9.80565148198368
H         5.06005024734768    6.92702688297950   10.38441288656246
C         4.08407717892028    5.31287165147921    9.42000972043206
H         4.83195945414934    4.58150442306172    9.69081869393903
C         3.33599897803684    9.00357883209731    9.87264788552184
C         3.34550649648879    9.05843611375241   11.40804787169001
H         3.42140368641865   10.09192305265380   11.73410370919565
H         4.18575601004461    8.51005656551854   11.82414953771704
H         2.42583613298297    8.63965619528762   11.81132221067056
C         2.18020685199298    9.86504830120660    9.35900362357139
H         2.14107329247405    9.86733943275216    8.27180275065439
H         2.32806685460601   10.89093268943045    9.68520952701788
H         1.22575820920973    9.52807698639631    9.75770511442956
C         4.65243679952189    9.57199287029594    9.32194273258708
H         4.67244374438124    9.50639871169080    8.23616471131183
H         5.51571650758258    9.04332765053452    9.71535776575469
H         4.74183238045912   10.61772671386088    9.60244528397555

