31
CSD_code = NARWIP | q = -1 | S = 0 | Stoichiometry = C6H18Cl3N3Ta(1-) | MND = 6
Ta        1.13032490433738   17.39263985814690    4.78413665482046
Cl        2.46366591104924   15.75853700732285    5.88611906731235
Cl        0.20889052411618   15.65675502506934    3.44137287440499
Cl        2.85764999489352   17.59649239978400    3.16047839310830
N         0.19051900005027   18.83336482108345    3.77961718278108
N        -0.38815019371384   17.05352095875882    6.02924994479628
N         1.95278742111776   18.70775148007444    6.02941013966616
C        -0.25197057918908   18.67760418518472    2.41872295048075
H         0.55154749432271   18.96721611118253    1.72329582527284
H        -1.13360364080273   19.29835902108447    2.20497230719300
H        -0.50008401158071   17.63482596415295    2.23777879381227
C         1.77057880615872   18.61694860735406    7.45141737368282
H         1.88225223159997   19.59292627436762    7.94539962866020
H         2.50859423145507   17.92361453994941    7.88486407821718
H         0.77698135206995   18.22046630707788    7.64821513366092
C        -0.66565562173852   15.75930280729748    6.59256831551712
H         0.27348643479270   15.25963078473167    6.82069141902328
H        -1.21566751021603   15.14169717720947    5.86426686544403
H        -1.26647666225532   15.83060745503075    7.51034285176486
C        -1.58239238654389   17.85190766039255    6.02496437828023
H        -1.32619418417408   18.87095247760411    5.75188902093647
H        -2.07382019129553   17.85731101776270    7.00972425564829
H        -2.30449033138602   17.46295467067894    5.28969709356836
C         3.13806774522251   19.46930657829150    5.73671889364416
H         4.03510682031811   18.92501926426035    6.06945613735445
H         3.12842618927017   20.44815876070124    6.24036656159358
H         3.21033969484434   19.62217400971590    4.66338956348339
C         0.23810303198615   20.23156347060364    4.10643285341801
H        -0.73974888092371   20.71783210870348    3.96397761409912
H         0.96551133859770   20.75696476477174    3.46724576777255
H         0.54462106761578   20.34069443165035    5.14371806058534

