95
CSD_code = NARYUB | q = 0 | S = 0 | Stoichiometry = C36H52Cl2N2O2Os | MND = 6
Os        6.31384523475430    7.15000946185128    7.46682912404821
Cl        7.59168278836264    8.57187400755699    8.77155482637821
Cl        5.03174018847508    5.75644280309943    6.13600929170211
O         5.16336669917975    6.73039998463164    9.05255522072292
O         7.55919568224120    5.63538062952152    7.85683850819572
N         5.16473208443558    8.63769824902473    6.99187146827092
N         7.36198718686652    7.65220231396852    5.91364423379960
C         6.98394424748015    8.97370138251841    5.44369492541886
H         7.46059785132163    9.68586918549480    6.13563116888916
C         7.37010868387149    9.32819143058850    4.00959838368465
H         6.92357925720183    8.60420190856975    3.32396064099375
H         8.45509364070422    9.29843169888054    3.89538172582483
C         6.88194329073541   10.73428713047379    3.67119128655987
H         7.37782827767033   11.45526811041777    4.32448455424454
H         7.15158467847150   10.97390871947695    2.64137305836961
C         5.37343280635940   10.83984073571600    3.85048768418737
H         4.87604983317762   10.14877970428221    3.16671927672694
H         5.04005015967623   11.85007367010553    3.60772939676040
C         4.97407689817968   10.50482484183779    5.28514589531161
H         5.42041742899515   11.22627205284560    5.97357077964055
H         3.88751820565574   10.56482170787716    5.36809491819386
C         5.45041532248366    9.09924415020411    5.64432716903641
H         4.97439100827302    8.37004513329518    4.96984822943165
C         4.28638692811201    9.20031500296905    7.76202971047375
H         3.77010478329604   10.09226694884930    7.41476436392716
C         2.97948222308385    9.56168086060887    9.75577910088972
H         2.65654100615555   10.47001250191637    9.27230938350791
C         3.89983228308698    8.75675543627614    9.05653005633575
C         2.51326979163966    9.22438804740577   10.99921228684436
C         2.97910311012990    8.02080049221727   11.56881544536752
H         2.61652367942488    7.76369546110298   12.54900451955072
C         3.85588939147950    7.17322485682705   10.94872202170837
C         4.35756008762776    7.52333584477737    9.64346611027358
C         1.52990650806161   10.07443818973205   11.78522054763833
C         2.18134171183687   10.49778454885241   13.10956301916295
H         3.09325527931784   11.05844445081164   12.91642536696834
H         2.43429859388581    9.63743917576560   13.72236404316946
H         1.49981630177670   11.12933895668785   13.67538050017050
C         1.11500492414232   11.34073516303491   11.03126872107143
H         1.97475530489914   11.97575556473287   10.83145416734741
H         0.41187353654042   11.90868301375972   11.63691265857285
H         0.62538104241486   11.09386885865987   10.09212478778621
C         0.26584761883708    9.24904509445979   12.06576692337424
H        -0.18690771393980    8.92613132998596   11.13075560234496
H        -0.45845864081378    9.85010947969566   12.61122781072824
H         0.48886501986556    8.36659165079700   12.65841652810376
C         4.33948757724617    5.88455973012363   11.59752269771792
C         3.75525806930291    5.67563777380775   12.99920765907202
H         2.67020686159776    5.60061301060057   12.97028488696920
H         4.04458759868300    6.47993856777328   13.67219345901072
H         4.14143066332932    4.74438908988712   13.40813480965932
C         3.91372637650652    4.69346657916358   10.72632671279323
H         4.34072639555829    4.76860876992808    9.73180183252615
H         2.82922537898256    4.66022350416269   10.63742617137599
H         4.25360063874527    3.76424476297714   11.17813703800721
C         5.86919907800482    5.92431289542130   11.72855346594956
H         6.33914300000876    6.00148840040856   10.75330582207770
H         6.22372040727739    5.01630629629910   12.21128763377143
H         6.17441227452918    6.77992948028516   12.32807680886075
C         8.25092948263731    6.91787971700966    5.32313522636422
H         8.70659011635670    7.27248314182907    4.40151599431041
C         8.72536260876048    5.65316195332873    5.77221302230839
C         9.64246412048286    4.98486896184320    4.94443640070967
H         9.90364452530032    5.46016919573990    4.01003970222453
C        10.19305419486600    3.77196846811527    5.28179780994113
C         9.80963636485837    3.20149497370758    6.50886109706229
H        10.22734709688232    2.24772839926722    6.77351873846420
C         8.93483596369947    3.79613508739885    7.38172124373058
C         8.35569093200869    5.06771817373040    7.03608396751256
C        11.17564532767195    3.09557894799253    4.33837013253467
C        12.37335146726864    4.02935184188119    4.11005060263734
H        13.09933915072074    3.55248540941587    3.45509212035805
H        12.85869578338558    4.25623612727022    5.05679105230953
H        12.06641518955899    4.96517469993543    3.65197476686722
C        10.47082503436176    2.81763759539743    3.00282423584913
H        11.15180926488687    2.31817990720610    2.31702410098171
H        10.13012970311819    3.73730173110160    2.53579197663293
H         9.60661998548731    2.17635905027539    3.16088644955706
C        11.70781342775435    1.76713029644524    4.88256918555418
H        12.41025006688423    1.34129571505569    4.16889379959192
H        10.90295241325369    1.05026678103830    5.02597712062048
H        12.23361115922454    1.91095730145835    5.82353330740700
C         8.53747642086507    3.14503024925653    8.69861488133406
C         9.19017238048584    1.77263617892697    8.89945414251073
H        10.27498390209922    1.84842637484766    8.93053967472466
H         8.89888684237280    1.07757693056398    8.11501581340270
H         8.85907731735768    1.35976455641510    9.84998786068978
C         7.01456981474178    2.94730865379609    8.72961887209309
H         6.49878725105353    3.89994484276334    8.66327945593492
H         6.72273774812213    2.46137896781944    9.65798362632711
H         6.69793215272261    2.32404873310160    7.89540612080465
C         8.97651731975044    4.05132536982487    9.85842690218606
H        10.05655050332766    4.18702982611088    9.84253136305853
H         8.69745757690823    3.59928652122204   10.80755875873461
H         8.50385884556877    5.02545051584464    9.78916603515056

