136
CSD_code = NASBOA | q = 0 | S = 0 | Stoichiometry = C62H63O4PPtSi5 | MND = 5
Pt       12.91498778917350    2.93015930264819   11.51490217116114
P        10.61737137931713    3.09656658241294   11.42749551351014
O         9.78717966720977    4.29952134788180   10.77852572242071
Si        9.46389477972773    5.89908991384650   10.98979501891985
C        10.70784420296109    6.90249887880719    9.97768032885783
C        11.00445301908139    6.52002205857075    8.67146932949131
H        10.54067042657057    5.63337494367291    8.26769031718831
C        11.88274304186636    7.25404339124573    7.89520353790346
H        12.09267647698654    6.94524995564853    6.88106558404694
C        12.48906771315161    8.38500845270954    8.41672835355559
H        13.17922527864646    8.95777730432163    7.81442086558315
C        12.20555334596646    8.77955568758812    9.71358510562511
H        12.67580121288324    9.66137723858863   10.12424976790947
C        11.31828097520825    8.04765459905519   10.48254080282608
H        11.09547571716344    8.36260182315079   11.49200509480265
C         9.51652107461941    6.38804366821359   12.81697623619337
C        10.54404293551247    5.93757533896582   13.64046673718075
H        11.31925979069875    5.31573933767830   13.21591571249919
C        10.57954404899560    6.26217925787528   14.98429041237483
H        11.38690837799189    5.90492764878122   15.60555433733130
C         9.57707963296793    7.04494788411335   15.53194915231584
H         9.59794743964752    7.29330229593580   16.58292714447079
C         8.55011372344111    7.50989171629224   14.72764985364616
H         7.76791780074487    8.12392326573060   15.15034602439754
C         8.52470475916140    7.18744565367030   13.38281283725679
H         7.72175626172023    7.55031648570525   12.75662838289401
C         7.71121282815254    6.10149852056264   10.30811564962440
C         7.42708207450909    7.03523694328693    9.31689817701424
H         8.22395053636395    7.65891126038055    8.93829076556946
C         6.14706156189577    7.16898887302661    8.80914686392991
H         5.94585604936197    7.89830956937519    8.03717849228916
C         5.12346431524991    6.36711577569592    9.28640337013504
H         4.12518150604149    6.46527812826557    8.88476402773713
C         5.38545397058334    5.44107792713907   10.28240278867874
H         4.59425855415415    4.81042557809968   10.66194381936219
C         6.66605243027307    5.31745584572286   10.78950174764421
H         6.86310000182704    4.59130267569504   11.56316030176786
O         9.98758082500759    1.89303082363474   10.59362880583947
Si        8.81607409301503    1.69298393404111    9.45038778076425
C         7.06967265274186    1.75871713401710   10.17963283782559
C         6.83265153564595    2.01918676353363   11.52609820601699
H         7.66556961520580    2.21060848380011   12.18323058379542
C         5.54679287472296    2.04875317182838   12.03794451773472
H         5.39349212607997    2.25291928321675   13.08845823978571
C         4.46636047976816    1.82315630714325   11.20296211876948
H         3.46016103188694    1.84773485269969   11.59658047829962
C         4.68078787689949    1.56350821777176    9.85843460400324
H         3.84066336287344    1.38724588813118    9.20190540349159
C         5.96827410494430    1.52777425129772    9.35690032146135
H         6.12866499963270    1.31760427241014    8.30966774654167
C         9.19251835641040   -0.03580906544042    8.77371279112186
C         9.92199795046234   -0.97874796446565    9.49119961046016
H        10.30612452272178   -0.71406030767078   10.46417746103729
C        10.16622290581178   -2.23912107355051    8.97585096887593
H        10.73909715718852   -2.95434352922111    9.54939800947316
C         9.67849369417657   -2.58300250376048    7.72682714472566
H         9.86785312710737   -3.56609877874061    7.32067248184061
C         8.94838997248698   -1.65821594342264    6.99840696489254
H         8.56760242398473   -1.91978053511520    6.02149905296243
C         8.71035568762342   -0.40019710141562    7.52002014403911
H         8.14952202185547    0.32121967914920    6.94345636963038
C         9.00489496069065    2.94729886617184    8.04132111842097
C         8.02824032497209    3.89756653863947    7.75736302160160
H         7.13090572819519    3.93373024381152    8.35690719208484
C         8.18836178538831    4.79710713669410    6.71777246971822
H         7.41887676474776    5.52894122848561    6.51968888621192
C         9.33093670249062    4.76011262877628    5.93650184915628
H         9.45704311737398    5.46262863201899    5.12534302610369
C        10.31124656374408    3.81700462107010    6.19997811936098
H        11.20507560975389    3.78089676465563    5.59415459417449
C        10.14494458825070    2.92022460151120    7.23988652279554
H        10.90733607549489    2.17903335625796    7.43212794501262
O         9.79215938802186    2.96732907103095   12.79228778205470
Si        9.88751429735443    2.28467875653822   14.28177753267647
C         8.22239962330542    2.76987353226549   15.03728740146786
C         7.52620980707323    3.89516229573491   14.60646853975952
H         7.94217779229970    4.49655493304084   13.81307433122315
C         6.31649635728291    4.24886942075042   15.17596414248686
H         5.79297960201901    5.12601687519264   14.82316989776248
C         5.78027601987451    3.47933488683675   16.19473399468503
H         4.83497732225058    3.75109999111459   16.64214004771465
C         6.45996879115282    2.35589212960536   16.63686239099272
H         6.04436432602019    1.75052667841657   17.42972812288045
C         7.66857259976521    2.00786272315173   16.06147130050342
H         8.19265593189786    1.12651048143368   16.40298815427878
C        11.31195342599012    2.97467043320891   15.32419406841480
C        12.56016983614705    3.29060618751230   14.79235176640695
H        12.74608176114664    3.15999678813684   13.72013520000542
C        13.57791618463676    3.77518266903820   15.59514242334497
H        14.53543371697661    4.01819101812247   15.15829364641527
C        13.37119038736485    3.94641038771282   16.95373251122654
H        14.16509100941587    4.32417097994954   17.58161773317293
C        12.13924176969578    3.63072674953668   17.50285270358654
H        11.96954667648161    3.76142433196645   18.56203083426068
C        11.12465832799829    3.15129874431565   16.69467515373748
H        10.16294615534296    2.91491713016993   17.12622478647151
C        10.04294817370553    0.39590927862914   14.18082507677957
C        10.74322749387609   -0.31318200726366   15.15610566124190
H        11.21642768072051    0.22864254014271   15.96299869814203
C        10.84946060062052   -1.69089814048442   15.10122200952782
H        11.40203285922555   -2.22013452622727   15.86417407344110
C        10.25003177042386   -2.39136572756122   14.06757812917582
H        10.33419507792650   -3.46745562537916   14.02180031552653
C         9.54255890902715   -1.70595647965149   13.09456455264617
H         9.06861196285196   -2.24565887777360   12.28708507476214
C         9.43993346850018   -0.32739873048263   13.15379751025039
H         8.89013855798869    0.19681174981019   12.38697098484750
O        15.49685946985562    2.08130642252522    9.29114330495195
Si       15.09026449832989    3.67311850878324    9.30772263781999
C        13.60102943778165    3.93430214412507    8.14710407284615
H        13.71909488870005    3.37456305729724    7.22462794901638
H        13.47262722781641    4.98049206781921    7.89124845192252
H        12.68194807466149    3.59908598918249    8.62682411208192
C        16.64594774826495    4.57596068068661    8.69555795927058
H        17.49529182390663    4.38881581766621    9.34266672695497
H        16.48157545933602    5.64682507277657    8.65908156752249
H        16.91269158843580    4.24332550786475    7.69908425520206
C        14.58986643968007    4.17725071005319   11.05838085991200
H        15.33912749753936    4.16045304583081   11.84899758168921
C        13.44663084249201    4.97027167151578   11.26665670202592
H        12.94454674918184    5.42291626862844   10.41744546977507
H        13.38334625429173    5.57269194747487   12.17374648436704
Si       14.73333140398097    0.75563708635091    9.88784011489617
C        13.28514079808814    0.30121096146553    8.73361292774910
H        12.43809764890765    0.96314967034739    8.89626669901070
H        12.94050225464912   -0.71414908044701    8.90023269114491
H        13.57728387352719    0.38400307165943    7.69126884481082
C        16.06985784870965   -0.59549016700112    9.91305191245758
H        16.45311696334683   -0.77057781369233    8.91440496576148
H        15.66950146400794   -1.53129757626204   10.28607498525457
H        16.90765989760293   -0.31539127889178   10.54173912497368
C        14.08440230890269    1.12270746229546   11.62566301798211
H        14.80250431902663    1.19208784641940   12.44294087769497
C        12.75402410670558    0.85007754197981   11.96975969274081
H        12.11571512561241    0.33139371936766   11.26386346938906
H        12.49378600308436    0.65923298735411   13.01058825276929

