87
CSD_code = NASDOA | q = 0 | S = 0 | Stoichiometry = C27H52N3Si4Ta | MND = 4
Ta        2.13793173342531   17.73428755111662    4.07834153353888
Si       -0.45791303363395   17.50798723993667    4.67046402696819
Si        2.20526757629904   17.18302865953277    0.62560667420597
Si        3.47573623910665   20.63485707972374    3.79067298497749
Si        2.66218244086803   19.80123892654331    6.58909373861281
N         1.87338576968568   17.49391716388920    2.27944006472373
N         2.58663011061738   19.61084218095237    4.87801509609929
N         2.98495467777615   15.99803488171695    4.59354134193634
C         1.36504059406121   15.57195496332361    0.00115586705865
C         1.64414105542021   18.56853873117516   -0.57739171746964
C         4.10415882503566   16.96238337517222    0.44458753382430
C         2.41905184845578   20.97904536590591    2.23632188673927
C         3.99781032893096   22.32602412083785    4.49898147835214
C         5.06452684204237   19.69030823942626    3.26677726454816
C         4.46229815326521   19.66718515380549    7.24991412100202
C         1.64714319197477   18.45222816180685    7.49591277792328
C         1.92538114191088   21.45672006508628    7.18843568550892
C         3.06602789457542   14.78828729810730    3.80140572227639
C         3.87604452539246   15.90832436532943    5.72777523329068
C        -1.58295427762441   16.79682810830155    3.22730952159686
C        -3.04695915022234   16.66246603609999    3.65210161140124
C        -1.50426129502509   17.70247318723304    1.99974158636237
C        -1.03581651734979   15.41671197464163    2.85817862209634
C        -0.80826165703825   16.31785924110102    6.13917038359493
C        -1.98784153855543   16.35501063850357    6.87877022837436
C        -2.21679950417591   15.46910625810901    7.91749527974887
C        -1.27074099947062   14.51012943076355    8.23479007072669
C        -0.10294748442619   14.43654122541466    7.49403383271616
C         0.11990662399573   15.32923787057773    6.46126373260198
C        -0.98992979220771   19.30861092996546    5.06364517187649
C        -1.60078177739423   19.72272823617471    6.24384953103254
C        -1.89377249279467   21.05627959764409    6.47441082273920
C        -1.58076727341391   22.01054109157779    5.52269357632420
C        -0.96293770127716   21.62038670044356    4.34498756744582
C        -0.66616767358363   20.28866195210172    4.12401960584289
H         0.28487859520529   15.66438884274906   -0.00458672887782
H         1.62004958540309   14.71619035415383    0.61781916963084
H         1.68026715635862   15.34971720797370   -1.01357137448298
H         2.25107106886123   19.46093532432058   -0.47025871975818
H         0.60979373788006   18.85100382950983   -0.41005805171811
H         1.73023177154684   18.23588086155759   -1.60707804364003
H         4.60117368552703   17.92092709593961    0.34039742622191
H         4.35676687999988   16.36407796136702   -0.42439559509999
H         4.51020926203164   16.46859252726297    1.32220372382264
H         1.62094817208795   21.68474665667825    2.44249971241867
H         1.97918560432388   20.05806851228722    1.86417655231278
H         3.03073084709809   21.40382965776871    1.44669661101793
H         3.13452285277303   22.90815468270588    4.79845217358334
H         4.53629150841599   22.89470872042202    3.74875016461580
H         4.64538957602855   22.22165649546062    5.36126250148860
H         5.67977380710745   19.43779313869853    4.12699336572069
H         5.67716596623325   20.28304600383659    2.59432045095396
H         4.80454647218287   18.76677459954168    2.75236068237230
H         5.03919638674940   20.54219403273887    6.96853386392240
H         4.98925397807961   18.79907892068936    6.86179369948997
H         4.47734434593003   19.60120664110179    8.33375295235099
H         0.58351225304969   18.61045322664329    7.35426845663871
H         1.84056563717913   18.51939636744178    8.56288575848816
H         1.87068299017865   17.43253067582294    7.19729873020017
H         1.04178713360034   21.71977546693951    6.61628357433023
H         2.63676036798514   22.26859378624050    7.09425550431595
H         1.63631147976429   21.39191414218633    8.23250382037682
H         2.42764041732752   14.90276032775758    2.92759799529168
H         2.73879159752668   13.91108032020248    4.37642191979767
H         4.09732866030046   14.60273406913411    3.47008141282102
H         3.83194673190596   16.82074168914182    6.32502758406154
H         4.91704427329580   15.76242055874364    5.39845392669641
H         3.62091258945240   15.05872716067347    6.37879839120860
H        -3.44820678925812   17.62284040331628    3.96734127209732
H        -3.14920081141265   15.95679820088001    4.47195852299827
H        -3.64612268676482   16.30092877192754    2.81740511158365
H        -1.97175557429486   18.66352588842748    2.19901864389242
H        -2.02347940415362   17.24245515318882    1.15978464945165
H        -0.46385580955752   17.85801027847709    1.72267082071875
H         0.00376430506946   15.50745706972812    2.55060568189589
H        -1.61096759940203   14.98792321615834    2.03881970852869
H        -1.09601696759360   14.73733039192722    3.70555807732344
H        -2.74764562689140   17.08027600394424    6.63212427655453
H        -3.13842802709636   15.52414236121472    8.47925587989416
H        -1.44533925111695   13.81964150531646    9.04698695126295
H         0.63354999421132   13.67924958431182    7.72426048238663
H         1.02694839383294   15.25582337408188    5.87607664807084
H        -1.84442202425937   18.99780182266073    7.00557573936371
H        -2.36404061142087   21.35128718416522    7.40168293850763
H        -1.80863315640482   23.05163015988678    5.70059236521645
H        -0.70824036163167   22.36159063553073    3.60090171459295
H        -0.16775078788545   19.99612213512177    3.21022644649436

