99
CSD_code = NASHOE | q = 0 | S = 0 | Stoichiometry = C40H52N4RuS2 | MND = 6
Ru        8.67644705456270    4.80043563920427    5.04530050366951
S         6.29487403087639    4.93944968937815    4.74299551648299
N         8.81876709465000    6.80288101091971    4.69412136402955
N         8.58928005984356    5.15756955252037    7.05002741535561
C         8.89685506028842    7.40418069477525    3.47979223555403
C         8.95622692379006    8.84037565939069    3.64469983708407
C         8.91571918373260    9.07809055553997    4.98541497295901
C         8.83398105384910    7.78538605266521    5.63009428157206
C         8.78181439910077    7.58869690327872    7.00149400133414
C         8.66995765165435    6.37078072092731    7.65582868795634
C         8.61308968174494    6.20728188552376    9.09157953424828
C         8.49673143382682    4.87033791449548    9.32570205278180
C         8.50229489397122    4.22381967104913    8.03212992818298
C         8.92509152192443    6.74748147571802    2.25884403137648
C         9.00466634012616    9.82628033215223    2.52529229271102
C         7.61479148731448   10.05579552857414    1.92679603392532
C         8.90755288010708   10.38951424281624    5.69768167294235
C         7.48827274412454   10.79512825825069    6.10251123079220
C         8.63377670521573    7.32286694138645   10.08354811121900
C         7.25419483701920    7.97323639350654   10.21677850403006
C         8.43350433185688    4.16248558903625   10.63860929279429
C         9.81173715485286    3.63601464465036   11.04597395120382
C         5.56758359872049    5.87504118800875    6.11196155582090
C         5.46668819911477    4.40393563997199    6.26110335158011
H         8.83616492360036    8.47038963355914    7.62208826707914
H         9.00697083448408    7.36362201141077    1.37608121782073
H         9.68002759213142    9.46786040335638    1.74392416108681
H         9.39802586287508   10.77711088157371    2.89147527706901
H         7.66616973497853   10.76072146380566    1.09935985710101
H         6.94114381064175   10.45593841235745    2.68117048877534
H         7.19786778867961    9.11944568387127    1.56277257027722
H         9.32705048738894   11.16075252119553    5.04814739723532
H         9.53506211087198   10.33075969406537    6.59067182569241
H         7.49811149975182   11.74996959198443    6.62422938531391
H         7.04914950462587   10.04542141874258    6.75720573211717
H         6.85661028591607   10.88822015466793    5.22194288709782
H         8.94562354248052    6.93968785394951   11.05693712716035
H         9.36263075621685    8.07694842901579    9.77682174880170
H         7.28143102595799    8.77992542186818   10.94644586806604
H         6.52004979963634    7.23758085998372   10.53931582081049
H         6.92911913409378    8.38078958099282    9.26179913076773
H         7.72975208275047    3.32821222634959   10.57822545556620
H         8.06744786681772    4.84731944638723   11.40624203863942
H         9.75476375702689    3.10927918032583   11.99653480005473
H        10.51428628179296    4.46052571062785   11.14584891807562
H        10.19618688507590    2.95412967452772   10.29091934404779
H         6.27458069367570    6.41256312942924    6.72906315437463
H         4.67639006192987    6.42740653210737    5.84615159080301
H         4.50561623011484    3.93515647570448    6.09862416922590
H         6.10264934342839    3.90859977908203    6.98229381003849
S        11.05792660806048    4.66048277728081    5.34769871243518
C        11.78552266950772    3.72541229857942    3.97857906601798
C        11.88615497633193    5.19657510526197    3.82981008780393
H        12.84712851621308    5.66545407743361    3.99244240518714
H        11.25017828665404    5.69191683967139    3.10863198963162
H        11.07863814849247    3.18793338795898    3.36137958130351
H        12.67680020420211    3.17318550888964    4.24437968396815
N         8.53437896919264    2.79789738880368    5.39647924744583
C         8.45620256576269    2.19655522426313    6.61077981671494
C         8.39679191686767    0.76034455372329    6.44590049281186
C         8.43730069655090    0.52262764762764    5.10518460678368
C         8.51906953230889    1.81536036547180    4.46053505237487
C         8.57120057749272    2.01196608311243    3.08914005815513
C         8.68304436207570    3.22987452498147    2.43480082781273
N         8.76365715855202    4.44310339396363    3.04060599038078
C         8.85070935949109    5.37682623701770    2.05850285475538
C         8.85630156790169    4.73028726914616    0.76493484421762
C         8.73994498848348    3.39334154345132    0.99904982808878
C         8.71929598177134    2.27775023816094    0.00707443732635
C        10.09888552437285    1.62738971283056   -0.12613713312907
H        10.07166772402744    0.82070042969705   -0.85580626321889
H        10.83303115267210    2.36304970060859   -0.44866299738055
H        10.42395031002606    1.21983742037768    0.82884636735480
H         8.40746357159836    2.66092157941821   -0.96632491946006
H         7.99044452314325    1.52365971599652    0.31378606257706
C         8.91956715717550    5.43812745524523   -0.54797242957580
C         7.54135189873346    5.96461016587532   -0.95537491614344
H         7.59835586436875    6.49133776970237   -1.90593779628872
H         6.83879585898012    5.14010721688401   -1.05526058585877
H         7.15689434866646    6.64650625617838   -0.20033600264177
H         9.62332593451356    6.27239320200747   -0.48757732155545
H         9.28563134507377    4.75328468231534   -1.31559199494266
H         8.51684942088917    1.13026768094444    2.46857027546790
C         8.44541940320831   -0.78882674893827    4.39294454750851
C         9.86468111284417   -1.19451590609679    3.98811545513629
H         9.85480867715490   -2.14936625912113    3.46640879012691
H        10.30383222005141   -0.44483536730508    3.33340974334959
H        10.49634261574900   -1.28762309418754    4.86868320510791
H         8.02589409619674   -1.56005551396669    5.04248342852601
H         7.81791259368058   -0.73007076263006    3.49995375253722
C         8.34831873901971   -0.22560065438501    7.56528731909781
C         9.73817445013145   -0.45517557954372    8.16380264795158
H         9.68677258909153   -1.16011868270845    8.99122528117649
H        10.41181822738574   -0.85531835520734    7.40942691898409
H        10.15510971899245    0.48115585417480    8.52785275497044
H         7.67296315685192    0.13281283415306    8.34665908897438
H         7.95494715800567   -1.17642755023465    7.19909491507374
C         8.42792753776564    2.85316971255421    7.83175569309211
H         8.34603576450301    2.23700626588127    8.71449412726223

