82
CSD_code = NASHIY | q = 1 | S = 0 | Stoichiometry = C30H45ClFeP5(1+) | MND = 6
Fe        0.35913953499364    3.86616135282470   10.13871460206684
Cl        1.14190224607258    5.46163177239394   11.40684946733222
P         0.54426437375837    2.92360158871164   12.06347720192192
P         2.57329815403974    3.50736540438754   10.02981973998937
P        -0.28617992563061    1.89639490881184    9.40077865766129
P        -1.59120416481907    4.63866721838067   10.94073067676559
P         0.28713414639425    5.17222656191236    8.32951859523024
C         2.21211651556678    3.02394488999365   12.80025431517906
C         3.19242429767125    2.81734051301272   11.64987400387196
C         3.70891332649460    4.92583033265468    9.82022560495746
C         3.45200485505398    2.35648758329751    8.89798182312276
C         0.23286896426769    1.10890668638227   11.97161198675679
C         0.55827121770835    0.70417173795906   10.54024057416919
C         0.07947514603121    1.10165474416305    7.79443830889236
C        -1.99285550853693    1.23981216516056    9.62478770986367
C        -0.64217008982257    3.53759628667395   13.30463262887222
C        -1.94415275811782    3.76960602554078   12.54533267019235
C        -3.23976204002065    4.54725023579902   10.14472954745337
C        -1.70242047046274    6.36333342576012   11.53964215650837
C        -0.00101530858655    6.94238950435940    8.65131755038079
C        -1.21101821090900    7.55161131230631    8.32504097769194
C        -1.41146445315945    8.89383904863658    8.59590813096357
C        -0.41582321645050    9.63960500915281    9.20513553355585
C         0.78363012845047    9.03717736328402    9.54776998069860
C         0.99153085795365    7.69730923811861    9.27607328856175
C        -0.96542132292299    4.85488474631245    7.04241241582535
C        -1.90317196470055    3.85532999392445    7.22832690256756
C        -2.84908709289220    3.57936830355617    6.25663173987901
C        -2.85425961271977    4.31217544825055    5.08256924267043
C        -1.91571999970997    5.31559893432597    4.88698797428456
C        -0.97174482826632    5.58947273916123    5.85722453594433
C         1.68989329614858    5.22887923948112    7.15075078852631
C         1.94149970741458    4.02764092615928    6.49329865107853
C         2.90809592791248    3.94740085129932    5.50919181133936
C         3.64079043215892    5.07437136623729    5.17159287079136
C         3.38638128872691    6.27610210477876    5.80994997864283
C         2.41050250137517    6.36189752179696    6.78965307113397
H         2.33041957496490    4.00835544908119   13.25918196683237
H         2.32256636016361    2.26044658748447   13.57702710062448
H         3.35341983931795    1.74600275261366   11.49244844665738
H         4.16407778391349    3.27191259581484   11.86317060647489
H         4.72564461309959    4.53585561442250    9.76043856132599
H         3.47653412756306    5.45172440389886    8.89581496135457
H         3.62761778870193    5.60992054625386   10.66172359992059
H         2.96017704801206    1.39003538208783    8.82047112598446
H         3.50545462177512    2.81078288284808    7.90999659091697
H         4.46427834220955    2.21012402135590    9.27826775566076
H         0.83902722656764    0.56946631170989   12.70571307661038
H        -0.82235247606617    0.92092704106920   12.19253232140624
H         0.24452036628074   -0.32028751507485   10.31771624568156
H         1.63467978445742    0.77860147359215   10.37032170923885
H        -0.44714920045794    1.62766710781052    6.99827053893188
H         1.14789452774157    1.11913885856654    7.59187369564908
H        -0.26378551459880    0.06676468974858    7.83085385369580
H        -2.60334135359007    1.44928980883345    8.74839168218362
H        -1.93076060442134    0.15766923570377    9.74891209740299
H        -2.46660279568260    1.67346272548702   10.50266748686331
H        -0.75120112491008    2.81261853250650   14.11787036435778
H        -0.24821173562439    4.47346794656757   13.71238410422765
H        -2.65151744993723    4.37146405539437   13.12350016847104
H        -2.42220013481720    2.81132505801008   12.31969482380834
H        -3.99434037893162    4.83921548846332   10.87601909300891
H        -3.25236938495012    5.25191322141461    9.31305310201213
H        -3.47301563720596    3.55587614283913    9.76933665221055
H        -1.06627401356853    6.50339650815711   12.41068330129232
H        -1.38737449084550    7.05797621765724   10.76547259337908
H        -2.74071199749762    6.56221071244222   11.80570221328651
H        -1.99959682242369    6.97897343550587    7.85721221602197
H        -2.35052346311521    9.35656785828396    8.33160017471114
H        -0.57554637799270   10.68606875251585    9.41437505536373
H         1.56050637039979    9.61183687472327   10.02898749019556
H         1.92412616522309    7.23275256989326    9.55751102771239
H        -1.86487537156066    3.30803720294500    8.15972628912811
H        -3.57911851118272    2.79769597045796    6.41060327243893
H        -3.58694770043994    4.10312488045584    4.31841058947143
H        -1.92122089013686    5.88574011423838    3.97045546713520
H        -0.24327242263398    6.37296807686537    5.70283308276745
H         1.34727434631454    3.16438432872223    6.75748448526237
H         3.08723797178350    3.01111428702529    5.00094307453589
H         4.39818478469184    5.01821037651188    4.40516805186235
H         3.94325526997267    7.16013628186317    5.53806813677289
H         2.21234698895195    7.31482804826213    7.25743603184331

