68
CSD_code = NASHAT | q = 1 | S = 0 | Stoichiometry = C26H35Cl2N4Pd(1+) | MND = 4
Pd        3.11474883934505   12.72421731145747    7.07481626308239
Cl        1.53461591724301   11.09278215939396    6.69539815484165
Cl        4.65492688494228   14.40566616765230    7.34133091907812
N         4.42459426692238   11.73718134233596    6.02928516271915
C         5.24833421076313   11.13255655884313    5.50835027605385
C         6.27192747197785   10.38719091082910    4.85340867153025
H         6.21388778576486   10.55327829714003    3.77769173207310
H         6.14146099701307    9.32517213173341    5.06174433286204
H         7.24741260648745   10.71180500918139    5.21614174756628
C         1.74417487569305   13.62176908725338    8.07776236722951
N         1.00888980600667   13.11722690927678    9.09044811265437
C         1.22507196449479   11.86056244600228    9.72775816167188
C         2.47023457390681   11.56297799728606   10.29250355601520
C         2.62862935771772   10.33775417191460   10.92474737686362
H         3.58670919499322   10.10059484649085   11.36320135098752
C         1.60110128234445    9.40927690564080   10.99905066254214
C         1.80101812778455    8.10865205409308   11.70836541497048
H         1.05035225856265    7.38179507055499   11.41102526707356
H         1.72327971910075    8.25878751744828   12.78528830896027
H         2.78849832305606    7.70390746484434   11.50012810111571
C         0.38900291037145    9.72124430772129   10.40113560848055
H        -0.41197098636512    8.99745900188649   10.41822162925771
C         0.18044019484559   10.92973146311133    9.75606149880582
C        -1.12803993696838   11.16447432022982    9.05983679261774
H        -1.84171338620664   11.67994090796528    9.70385004068641
H        -1.56402766462919   10.20735758705336    8.78820806988944
H        -0.98008160919013   11.73259972569368    8.14422379059329
C         3.64160091938107   12.49764154745250   10.22840970956861
H         4.30557311658679   12.32209490570380   11.07167802868641
H         3.34346925870147   13.54656307128901   10.23362511221600
H         4.22266709664722   12.30471628977627    9.30636881559088
C        -0.05184968289753   13.93232488210862    9.34838701107551
H        -0.74364668599762   13.71061681832388   10.13390589956724
C         0.02228284220365   14.98197259147793    8.48123455367024
N        -0.96657704521886   16.02550467745246    8.22990776068426
C        -2.15345970669931   15.78666812753918    9.07626737147236
H        -2.57587397180490   14.80633483404185    8.86411491131823
H        -2.90604310814719   16.54548613619725    8.86878169970714
H        -1.88325527536385   15.84224114621181   10.12885882870832
C        -0.44164829528302   17.37505048953427    8.52898808409747
H        -0.12472082993599   17.42838713236771    9.56887594414346
H        -1.22108568601063   18.11561422215383    8.35841546753767
H         0.40846889300225   17.59836977679304    7.88587550970691
C        -1.37993783094175   15.96699716859084    6.80970129145136
H        -0.53110911168287   16.18696231402283    6.16284347866581
H        -2.16594634211143   16.69674175664986    6.62461783603312
H        -1.75618193431555   14.97233121849497    6.57525792659696
N         1.15075139242216   14.77647843163670    7.70679734008894
C         1.76975168953718   15.68106644259442    6.78297525966945
C         2.49527322651420   16.76613634853546    7.28795861385138
C         2.80759701721345   16.91007443843811    8.74638025185621
H         3.79270899510508   16.46550145100833    8.89578048991008
H         2.11220745238129   16.38468437701989    9.39630737402852
H         2.86022569550128   17.95571862934996    9.03918663954445
C         3.04509820806439   17.66285491895544    6.38456647428791
H         3.61022109715056   18.50049287102520    6.76378901698668
C         2.93495554731725   17.47894997384324    5.01272356764532
C         3.56155809489122   18.44885710254196    4.06501444685920
H         3.08160465697252   18.41216906845592    3.09068136611237
H         4.61361328913245   18.19733228663819    3.93320130050381
H         3.50907811308524   19.46307541828126    4.45310464258375
C         2.29086051350438   16.34195991372107    4.54529917555405
H         2.25747879181655   16.15003860608093    3.48343488283695
C         1.71875872112401   15.41872426567486    5.40987190374274
C         1.14643818644478   14.14297744659374    4.86930583764353
H         1.94686769972376   13.37801054165772    4.86358438401618
H         0.80933629388906   14.27312898870492    3.84396804218230
H         0.32631071233195   13.74888770002006    5.46857037941124

