79
CSD_code = NASHEV | q = 0 | S = 0 | Stoichiometry = C36H40P2Ru | MND = 8
Ru        3.97823074922846    7.03314202257161    2.55048730233112
P         3.37734086977908    8.59324278475054    1.05635300852362
P         1.87556124272727    7.26528667576491    3.26856698765963
C         5.85311925876216    5.83749004385134    2.67794698846383
C         6.20141002159868    7.21295663513213    2.56543771122584
C         5.68271081620026    7.90508227957150    3.71985953544433
C         5.01010405195884    6.94959218181031    4.52878308059713
C         5.07008314245144    5.67353763034174    3.87128729615268
C         6.40578288095973    4.72644678794819    1.83474295870248
H         7.32628514100742    4.35013260981169    2.28895663347921
H         6.63998863044276    5.07408554259762    0.83008781150619
H         5.70113027511095    3.90064177757732    1.75772844644451
C         7.21212003311677    7.77803949443369    1.60934838014933
H         8.21979300079021    7.52847534499894    1.95322747901505
H         7.13090201602424    8.86185839679010    1.55063015260880
H         7.08560968633990    7.36915561454360    0.60730951389883
C         6.11477058298516    9.28476143676675    4.12964264552764
H         7.17192986699960    9.26721594861898    4.40765498130962
H         5.54992592011854    9.64203490418255    4.98899187134742
H         5.99384237539675   10.00530967468798    3.32022056380448
C         4.52527106204062    7.13294834569182    5.93727863959125
H         5.26329263306598    6.71732585355873    6.62827734318255
H         3.58229223266893    6.61044363891690    6.09989454361129
H         4.38004886765204    8.18189328944502    6.18699155039181
C         4.70722960559207    4.36362914653835    4.50967257531053
H         5.51218802902989    4.03409652624247    5.17277180498547
H         4.54713413586860    3.59462465908978    3.75652976654468
H         3.79421182598004    4.45367233541404    5.09790205357931
C         3.57077475328985    8.31307735814841   -0.74486712738352
C         4.14896123320266    7.12915067801498   -1.17946182165178
H         4.44748665749783    6.40298110264031   -0.43251411501421
C         4.32188105206902    6.89059888761382   -2.53183966585683
H         4.77249376049332    5.96714064546301   -2.86665410900353
C         3.91634748537126    7.83785182667539   -3.45674915012256
H         4.04901219753000    7.65493713621860   -4.51331255661982
C         3.34109501119730    9.02487096691554   -3.02843420915296
H         3.02927493475825    9.76498330696543   -3.75176493695691
C         3.17048813223202    9.26563511475197   -1.67851511554607
H         2.74005749415196   10.19981526156442   -1.34098347234990
C         4.10889859772498   10.26836373453710    1.14614097141702
C         5.26273326922885   10.52131077375931    0.40498864572452
H         5.61642556709125    9.77362316144105   -0.29248098857232
C         5.94435330025769   11.71559145295424    0.54492368189055
H         6.83405933284200   11.89901728238593   -0.04081650007320
C         5.49092144531854   12.67427526405026    1.43669145532086
H         6.02278680643383   13.60790109451853    1.54722493055509
C         4.35654174082901   12.42534406421500    2.19135910889765
H         4.00216473107985   13.16603519599671    2.89431346038279
C         3.67577039306337   11.22880431972303    2.05530167717005
H         2.80316964928548   11.04514752260402    2.66591133081302
C         1.01759617704147    5.81243011846141    3.94988290963836
C         0.74325374389599    4.73851983662929    3.10674709888200
H         0.96504063824045    4.82794202315155    2.05256381369318
C         0.21875453668448    3.56643385779745    3.61582745466507
H        -0.00270540788574    2.74206298861560    2.95321093776265
C        -0.01380103064618    3.44108849643868    4.97696067360898
H        -0.41994204315197    2.52280839397210    5.37534262016772
C         0.28999039275913    4.49105933686686    5.82703459603076
H         0.12654665144637    4.39119387948384    6.89089675169779
C         0.80771324038539    5.66913950100742    5.31910022341555
H         1.04377544786544    6.48706281567074    5.98771273720435
C         1.32185030606619    8.58605771319511    4.41020330642206
C         2.24130695036293    9.55111836135943    4.79519242176681
H         3.25825153665827    9.46243363230452    4.43506629019712
C         1.85911129891525   10.60469096031024    5.60696014850412
H         2.58151934889953   11.35291471288256    5.90252196650853
C         0.54642953272443   10.69809420566154    6.03724124862100
H         0.24205657520237   11.51674318032383    6.67317131598998
C        -0.38024869010617    9.74136595662296    5.65040280961407
H        -1.40492196418627    9.81859129880199    5.98524784816380
C         0.00138773409020    8.68988539498373    4.83829410132919
H        -0.71959067841170    7.94015518800452    4.54046583475039
C         1.53663081981381    8.93513360158325    1.13970339259121
H         1.37560567596729    9.83029640863445    1.74746909861332
H         1.14459403172163    9.11745995114938    0.13453388470559
C         0.84593096935354    7.74454896538471    1.79588889532481
H         0.85211984063607    6.89010297444074    1.11238436667687
H        -0.18299097757423    7.98081487173499    2.08520880056214
H         3.38582884441524    5.96297364169926    1.60622133367632

