68
CSD_code = NASJEW | q = 1 | S = 0 | Stoichiometry = C37H24ClN4ORu(1+) | MND = 6
Ru        3.45391090959201    1.91264675837764    0.29002671836575
Cl        1.61155865991198    3.34315041634928    0.57045184872190
O         4.95608123985327    2.59338347324888    2.78571490274028
N         4.90419430825752    0.60664611754501   -0.37316912164473
N         4.67199725881566    3.16151566508418   -0.78568758961496
C         4.35368758599788    2.35162979403521    1.84512999066552
C         5.06797089749478   -0.68789672408598   -0.01039040428622
C         4.78209654984065   -1.09112175882855    1.30936776709535
C         4.88875596366770   -2.40813255306125    1.66741171404626
C         5.28779107639485   -3.37430172070142    0.73126786030850
C         5.62308506407667   -3.00354921876540   -0.54293625474509
C         5.54118595394613   -1.65552145405696   -0.94022505040504
C         5.91218516670462   -1.20506756152276   -2.22534737022570
C         5.86843416506125    0.13049165948222   -2.51258315713519
C         5.35596697685668    1.03189271076544   -1.55711645156460
C         5.30936715411730    2.48067468871747   -1.74372066698948
C         5.97432067933371    3.13208131790855   -2.80255712086630
C         5.97765164243256    4.49638483667310   -2.85549212897593
C         5.37533087851770    5.23553912995039   -1.81737643522181
C         5.38978570846323    6.64227054182459   -1.78285638406768
C         4.81197045212693    7.31763865266703   -0.74205957523757
C         4.21130855356954    6.61007612317903    0.30980174798661
C         4.17179011722892    5.24090414000495    0.30518702279997
C         4.73513739647273    4.51614465650215   -0.76486066953234
N         2.24868099545327    0.41849350800770    1.01086999360589
N         2.48738628456851    1.23225903591244   -1.43394708864155
C         1.84109044014696    0.19543190764672    2.28605118030402
C         1.91804885884727    1.22164045705190    3.24980714052159
C         1.51665894837669    0.99515554007932    4.53869698203174
C         1.03560435305472   -0.26361657482669    4.93206606903335
C         0.92319951098071   -1.27221801903356    4.01532982193235
C         1.30210232160943   -1.06626494991153    2.67420179155970
C         1.14938093288401   -2.05587823108787    1.68383798882148
C         1.46456752455621   -1.76229703670047    0.38678512469992
C         2.01199525053667   -0.50347193522863    0.07602769738588
C         2.26079604796799   -0.07151938933647   -1.30349386140530
C         2.22245841271597   -0.93157703383187   -2.41916094929050
C         2.41517716984227   -0.41295240399421   -3.67063465917042
C         2.53499440226909    0.98101901470028   -3.83683348194153
C         2.65134266307423    1.60477071007405   -5.09431706681513
C         2.70694444345607    2.96854973604970   -5.18818079444023
C         2.52700839808298    3.19440405047927   -2.79544046828832
C         2.61604351535450    3.76550821988558   -4.03473166742936
C         2.52560270829826    1.78952592286103   -2.66406902769747
H         4.51305459326174   -0.33455404723394    2.03404910430295
H         4.67666911201868   -2.70743102522134    2.68206165095980
H         5.35442977160261   -4.40819159075513    1.03151666641246
H         5.97312497131291   -3.73204691389083   -1.25837079413468
H         6.24857671090395   -1.91971822254678   -2.96067026834623
H         6.18302739011341    0.49141384068697   -3.47734447378653
H         6.47246631294482    2.55480635939967   -3.56286674218509
H         6.45560011020788    5.01826459552091   -3.67033614244649
H         5.87454665796338    7.17248145026080   -2.58855482790339
H         4.82531151677967    8.39612925312444   -0.71917911139875
H         3.77677036500029    7.15358898954463    1.13386555592777
H         3.70337441871990    4.70155285907694    1.11572251704548
H         2.24762068758888    2.20336898168831    2.93893787309998
H         1.56324875401794    1.79392411452287    5.26216997144980
H         0.73892372202474   -0.42319347297295    5.95685127544480
H         0.52773781322256   -2.23661384572001    4.29593707241700
H         0.75290475114046   -3.02260344388811    1.95375681125942
H         1.29399086060376   -2.48369199732150   -0.39434850935833
H         2.08626024657756   -1.99108253919859   -2.28058089147232
H         2.44854140196928   -1.05592718355828   -4.53737664365116
H         2.67139684792681    0.98563951764557   -5.97853572758411
H         2.78925874932913    3.44241819009602   -6.15399035896484
H         2.40223855618548    3.79665274217728   -1.90578595416544
H         2.60087813777336    4.84007116847320   -4.13277396991560

