105
CSD_code = NASJIB | q = 0 | S = 0 | Stoichiometry = C38H62FeN2SSi | MND = 3
Fe       10.62394455031389   -7.64344892736890    5.29691458656655
Si       10.82145501453673  -11.47117994919198    4.52813005332622
S        10.09374836533856   -9.69824542483404    5.44857299838786
N        10.30226299943359   -6.21247489533064    4.02325997927971
N        11.24110529749127   -6.23320662939183    6.47946362514309
C        10.15799258309906   -3.95064694616226    2.87405945849594
C        10.08257498968733   -7.06512285293863    2.93810705812340
C        11.25892962549574   -7.02334674455716    7.63396680888686
C         9.32305805204114  -12.22241463679962    3.62185860333848
H         9.56949788621647  -13.18853468903255    3.19228681649272
H         8.99289414437402  -11.57129111475982    2.81760169303654
H         8.48431899387663  -12.36121534088598    4.29710777185480
C        10.51564351914599   -4.91302997118300    4.02473145800553
C        11.17070415153111   -7.42044143112068    2.10502877901645
C        12.37345459003179   -7.83031270713775    7.93884321052869
C        12.21469283817172  -11.20816122679309    3.25201631279573
H        13.14628363580047  -10.91271053048435    3.72508548488860
H        11.93841254704412  -10.44161793568080    2.53419099778683
H        12.40223262844746  -12.12537993072805    2.70217088674859
C        11.01044376571477   -4.29825180502903    5.17733141039169
H        11.14020883726284   -3.23500637032811    5.13739098189714
C        10.97817808628708   -8.35439093820380    1.10266897522791
H        11.80388344806432   -8.64318968025621    0.47061182068135
C        12.32442220798089   -8.66031066548197    9.04835881787308
H        13.17405306186009   -9.28251776617629    9.28638197104971
C        11.43269303449147  -12.64499410864780    5.90002054266029
H        11.67927053801153  -13.62058259033764    5.49276238607327
H        10.66989164515336  -12.78355272413017    6.65987920545031
H        12.31830704489975  -12.25626053474786    6.39376038915919
C        11.34123719066271   -4.92522244866278    6.38253552213156
C         9.73549422405417   -8.92558141082993    0.88991078036683
H         9.60368176797640   -9.65403420583226    0.10346726170110
C        11.20497573335727   -8.70783969631320    9.85495401740795
H        11.18148744440939   -9.36420963759652   10.71210367070884
C        11.89738258981146   -3.98948770393218    7.47389934525686
C         8.66563446767307   -8.55652048388413    1.68165499982274
H         7.69726081674154   -8.99611551663481    1.49662532037734
C        10.10947548605944   -7.91713346684851    9.55737991420371
H         9.23634791385929   -7.97066364328780   10.18860913335650
C         9.80543217788401   -4.61119766665436    1.53918487588604
H         9.49126625814995   -3.83762550276848    0.83896516138754
H         8.99379560617854   -5.32216355218366    1.63580313258366
H        10.66144573427471   -5.12251901265823    1.11000008720644
C         8.81087981622697   -7.63304046816582    2.70560102733054
C        10.11698733438991   -7.06662202842702    8.46641997333004
C        11.32480735999913   -2.98992964722297    2.58767600922318
H        12.24317734330114   -3.54386097469995    2.40619944081550
H        11.50040194237461   -2.29347450597578    3.40156286127802
H        11.10117061590623   -2.40373162749185    1.69847259282916
C        12.52982597578853   -6.80938021211667    2.36108338474856
H        12.37805769466616   -5.82740731557644    2.81832202291575
C        13.60941666728258   -7.80825324324469    7.06956144802187
H        13.44323325819276   -7.07777050584012    6.26999865663602
C         8.93233025394588   -3.14824565919527    3.34075338662197
H         9.14018372336184   -2.60835438829070    4.26033511365017
H         8.09375005617343   -3.81587228224919    3.52421958858165
H         8.64203282701592   -2.42880712935596    2.57722254273488
C        13.37077377600297   -6.61958354488507    1.09892123553242
H        13.71123934867021   -7.57264623498097    0.70171191603663
H        14.25111015408962   -6.02367297273884    1.33185651499813
H        12.80373154733974   -6.10548758190481    0.32554587508861
C        13.81586635828745   -9.18618407983018    6.43681780025654
H        14.07365608964984   -9.92135148800192    7.19526208362591
H        14.61772178793821   -9.15423794359565    5.70257659859225
H        12.89828675858070   -9.50878372860554    5.94655253334625
C        10.93929293420013   -2.80905212302526    7.70211148750190
H        11.30528885516415   -2.19717883293561    8.52435583822482
H         9.94709450561251   -3.17033145066724    7.96270787620188
H        10.85200743693019   -2.16922996485677    6.82967251786247
C        13.27459659601244   -7.67471107604245    3.37846710501838
H        12.62819660311475   -7.84830845851914    4.24789416961930
H        14.18660883044894   -7.18140941300608    3.70677305987565
H        13.53475479761932   -8.63477283620994    2.94165376064924
C        14.85983915778882   -7.39379821348507    7.84938203466397
H        14.74581988847984   -6.39960131815256    8.27575340997960
H        15.72270555011205   -7.38315312084252    7.18622504915815
H        15.06251814836093   -8.08894779678611    8.66028687723139
C        13.25392522206899   -3.47207005919509    6.96694741640227
H        13.94359424185806   -4.30251999642848    6.83182514883750
H        13.68391586403875   -2.78088330528948    7.68947975077667
H        13.15559708715202   -2.95619758677961    6.01623755550620
C         7.60849233156827   -7.23434075885608    3.53103790304537
H         7.95751814466115   -6.57065557691041    4.33002497434219
C         8.89933972878644   -6.24632557728497    8.11145397901359
H         9.21990116326406   -5.40132270507479    7.49483286072165
C        12.13458817074659   -4.62819437551580    8.84419733817455
H        12.80913876245266   -5.47469676409320    8.78697181399815
H        11.20528205290075   -4.95738276309070    9.29804968647899
H        12.58507528948246   -3.88496695501166    9.50155294418942
C         6.94976263086774   -8.45986171564961    4.16774814806568
H         6.48307145995221   -9.08581738409057    3.41152269974617
H         6.18162748636687   -8.14849591707647    4.87151989822158
H         7.68884870117619   -9.05318476050810    4.69896804791778
C         7.97643704844431   -7.11773410286511    7.25831397286888
H         8.53062489822725   -7.48962176832756    6.39075161052180
H         7.11665522073388   -6.54647404721132    6.91633140221156
H         7.62687691156173   -7.97467770222135    7.82845890532160
C         6.57321188299852   -6.48403321309485    2.68600630648420
H         6.23434937132074   -7.10060710967443    1.85652793620822
H         6.98043466976185   -5.56214020677909    2.27809634486110
H         5.71023920679388   -6.23197399972806    3.29913720160559
C         8.15457250596430   -5.69213503444961    9.32613713609513
H         7.65302332204953   -6.48278091106675    9.87813016439999
H         7.39666641938557   -4.98291291857177    8.99910128185887
H         8.83599071956277   -5.17834760222381   10.00152547440257

