106
CSD_code = NASJOH | q = 0 | S = 0 | Stoichiometry = C40H62FeN2Si | MND = 3
Fe        3.92198872513153    1.27560953944918    1.46986895796465
Si        2.56850386297316    4.86831782568536   -1.47868615404181
N         4.03151772909003   -0.55785891866739    2.08295206501875
C         4.81574454504103   -1.21560218374426    2.91141422372331
C         2.82484886836211   -0.97359155665055    1.50811022147113
N         5.44633015024771    1.57412585816269    2.62663274419930
C         1.64269067547372   -0.97973582369938    2.28610598434348
C         2.75777297291524   -1.32243327840860    0.14273201909088
C         7.35953191971602    1.29775224310057    4.27831560488858
C         5.85820018060353   -0.53781360230738    3.54909749015013
H         6.47609217745326   -1.11519580230787    4.20854307522186
C         5.69557553537082    2.87891474337566    2.18180152689207
C         1.54092183675285   -1.72014539776323   -0.39291537681373
H         1.48557521019417   -2.00544632185280   -1.43235911331932
C         3.02808294998569    2.41074304431738    0.29275481279899
C         6.18087501799449    0.81555732531985    3.41158354950427
C         4.74680377184683   -2.72721847819350    3.20201165257747
C         4.32883840108620    4.49988814737791    5.09100955665744
H         5.26369184620972    4.11419534488592    5.49181761863585
H         3.55269167272753    4.35655445886424    5.84013917771746
H         4.44722367909443    5.56752122616984    4.92250924537227
C         6.62167620716312    3.09676018533310    1.13514335291132
C         3.98228802545386   -1.26868310693595   -0.74197306284237
H         4.81948561608870   -0.89048313898632   -0.14135369263958
C         0.44930104686458   -1.36800770326270    1.70503443556828
H        -0.45679269480949   -1.37107869464725    2.29032048111812
C         2.80076106871939    3.36566041824887   -0.43550317624625
C         3.56738283018325   -3.47756595935448    2.57824503881584
H         3.67582739396619   -4.53941392274022    2.79774479353120
H         3.53497974728778   -3.36279739125602    1.50023333974367
H         2.61851768558056   -3.14796578112868    2.98992144239503
C         0.39667064062890   -1.75761227090668    0.37803060026384
H        -0.54011155252181   -2.07388222287929   -0.05570280337400
C         4.97837753709669    3.97253889835901    2.71116086816621
C         6.03372451156492   -3.35418924640304    2.63952383547352
H         6.03775255748661   -4.42714029414230    2.82267090835729
H         6.92252071193116   -2.92832888746342    3.09559176227111
H         6.09308311395029   -3.18780819847006    1.56587525605027
C         1.69184987984493   -0.47100632810791    3.70742591654149
H         2.70777568611850   -0.60785110470266    4.09068313583302
C         7.30924539690022    1.91870413258214    0.48620945393453
H         7.28922130150591    1.07593673591369    1.18432097795307
C         4.36025970895509   -2.65169038320770   -1.27896313088867
H         4.58840877792586   -3.33976583127172   -0.46781764091197
H         5.23827211119149   -2.57466737593146   -1.91702151329432
H         3.54873332181293   -3.07581444179450   -1.86538368327851
C         6.81831380252295    4.38046493464891    0.65905969084183
H         7.51328945770951    4.55098515708750   -0.14842281863548
C         4.66679665735726   -2.96801988588342    4.71817133491645
H         4.58462305878545   -4.03547895833754    4.91411339869982
H         3.78965352151638   -2.47771540841788    5.13492185131256
H         5.54337069727587   -2.60176297567021    5.24338365259627
C         3.94200449812599    3.78230944401551    3.79483917528831
H         3.86395265244521    2.70835862579226    4.00454238272106
C         3.74060146425853   -0.29896367029018   -1.90232258497560
H         3.42136432058040    0.67039197276441   -1.52133629873489
H         2.96867431201484   -0.67790068341930   -2.56697486111401
H         4.65147495622199   -0.16602196386659   -2.48071528879578
C         0.72739742013738   -1.17881876704532    4.65800736177110
H         0.84021780026571   -2.25932068994048    4.59405144216427
H        -0.30608285120437   -0.92566294579475    4.43571299650979
H         0.93132621656007   -0.87320760228277    5.68238999409771
C         7.78271833104789    2.75504593023817    4.07892394112804
H         8.57431618904062    2.98817156213752    4.79063186777539
H         6.96431148814357    3.44482186088004    4.25355541184557
H         8.17105297118374    2.92699548605409    3.08004630030770
C         2.58174010045728    4.28375124441277    3.30159835449528
H         2.34892212814137    3.84117383055880    2.33468247126868
H         2.58925595953345    5.36423604766359    3.18656323379532
H         1.80050788091013    4.02346480870108    4.01161843045834
C         1.40842254842297    1.03281238391684    3.66140779561132
H         2.10730886836361    1.51480676452304    2.96726412937295
H         1.52096708226585    1.47552916441175    4.64822501286074
H         0.39708461870646    1.21770296624665    3.30658637135391
C         1.07830916410509    4.65938935122399   -2.65416996578080
H         0.16040508928795    4.50028400192523   -2.09648216610334
H         1.21458144537059    3.80479245504462   -3.30990383787900
H         0.93715845186797    5.53665272914983   -3.27956218185971
C         6.93650411620778    1.14221803305329    5.74859566802688
H         6.69180746016751    0.11229579743520    5.99111324431718
H         6.06041653578022    1.75427103667179    5.95290513565503
H         7.74261758370168    1.46442792243913    6.40521807631252
C         5.22382968024110    5.24425957753786    2.21544517513172
H         4.68854319655825    6.08645053865254    2.62674411620951
C         6.13748785364578    5.45482035188028    1.20255944682619
H         6.31200000148777    6.45214387931044    0.82697465933274
C         8.60170725096877    0.43714652549996    3.99635942475859
H         8.45215812241890   -0.60552504000809    4.25888861071454
H         9.44299758300391    0.80840549368176    4.57860518594636
H         8.86765648776133    0.48925112035763    2.94286511045768
C         6.48321856119406    1.52925015047166   -0.74159196794975
H         5.44453620420160    1.36531171189670   -0.43793683048376
H         6.87546480162600    0.62404881754818   -1.19935569339618
H         6.49371588457953    2.33005418346760   -1.47696212251277
C         8.76554483088828    2.18369496751469    0.10485628437824
H         9.32602535218062    2.57461685967823    0.95182756394198
H         8.83808883011504    2.89547959842557   -0.71318774453201
H         9.23518804274311    1.25654293066321   -0.21805976053186
C         4.15887999756059    5.15181295695413   -2.50054944861124
H         5.02087930319266    5.23155078677413   -1.84470536702242
H         4.10519627311744    6.06174302524618   -3.09184960095307
H         4.33972218273462    4.32538820455190   -3.18157668960111
C         2.28801666180110    6.38477630315692   -0.35063247260046
H         3.13086830504506    6.51880982409877    0.32046197403471
H         1.39863305541272    6.26087661221914    0.25997151553602
H         2.17064318115738    7.30002418038598   -0.92444586814618

