115
CSD_code = NASJEX | q = 0 | S = 0 | Stoichiometry = C44H66FFeN3 | MND = 4
Fe        7.01639160010239    6.19204824659571    5.84433654407020
F         7.77281265484122    6.25479780823051    7.40491459146824
N         9.18711967007475    6.32758398506298    4.86012800649248
N         6.27600594206391    7.50716826816331    4.49546857494647
N         6.37154143583691    4.73109780010469    4.64120943553609
C        13.17839893641295    4.16788569844524    2.72262608443753
H        12.99653400081538    3.47567567958200    3.54235529730390
H        14.15684731019386    3.95055998605883    2.30021427821597
H        12.42946615582342    3.99276281161422    1.95521494631205
C         8.28714861196208   10.24318193263854    2.30690917602864
H         7.29977271137721   10.19795914394708    1.85886210811265
H         9.01819411144710    9.98063031661729    1.54403534229492
H         8.47238812972206   11.26988659717013    2.61480302231202
C         9.57303850588139    3.49708920884139    6.67477724612977
H         9.14875115291635    4.35803320271170    7.18080708935104
H        10.57787454410382    3.74623727581392    6.33947658934210
H         9.64157651366856    2.67692516696903    7.38557503702170
C        14.26074767398134    5.80659658000826    4.24862822820256
H        14.15104546973288    5.12283799945929    5.08723499578122
H        14.28228184438802    6.82788417491307    4.62180053337829
H        15.21744965369819    5.60266186577142    3.77248077902969
C         3.34095534185950    7.69305721671284    2.64902485076487
H         2.65505231396004    8.33460318282069    2.09831780453004
H         3.00427084570727    7.63570284617400    3.68215298500897
H         3.29437378886542    6.69438059658784    2.22473289385536
C         2.61747718564375    3.55081719721900    4.99022388156292
H         2.96973533892116    3.14634600110596    4.04519060894404
H         1.79306481421560    4.23117061117233    4.78461982746848
H         2.23872673771358    2.72773714201426    5.59203452420504
C         5.79568618397801    2.19048976680297    3.13830351449429
H         5.76771070743268    1.40902664911953    2.37879615001415
H         4.89856070610954    2.10493033281136    3.74371270067084
H         6.65214195502069    2.00527594404444    3.77358189024207
C         9.87632966141225    9.32639208215242    3.98085163403088
H         9.97300119157396    8.83173566688477    4.94221228635573
H        10.21675273892088   10.35345819156718    4.08991803672068
H        10.52690167893144    8.82816062348057    3.26432189806153
C         5.21503521565867    8.36745210033914    1.11588878419201
H         4.81572537735698    9.27377475412612    0.66477519708062
H         4.85418672198356    7.52762880523387    0.52814488248011
H         6.29899099029493    8.39364797653101    1.04152308813416
C         4.65201888155275    3.65176330446582    1.51966118441254
H         4.43991355520568    2.67647313032639    1.08546474341116
H         4.81269126364184    4.34059510617308    0.69481323058653
H         3.77487384628597    3.97468002923542    2.07488070238134
C         7.67735209308588   10.84743384050060    5.27831268282725
H         8.43294544723998   11.52642856291242    4.91278171758735
C         9.31071028100920    1.90747596999067    4.76020383722716
H         8.72775182597865    1.62183714964149    3.88766207412307
H         9.37708463437653    1.04585235107982    5.42012173305674
H        10.31631413657000    2.15868092447244    4.42676189073328
C         8.69577171965063    3.11033318268454    5.48224010647978
H         8.66537752768860    3.95271405233992    4.78700716575962
C         3.19509289661997    4.89974444616616    7.02069476937165
H         4.01337087706326    5.31550053633741    7.60202775880198
H         2.69589008453043    4.14454147924389    7.62348963760158
H         2.47689027744202    5.68654247071548    6.80013677065542
C        13.13368917032491    5.61591010352433    3.23093612607003
C         7.15689982070188    3.56512977877533    1.58669528743012
H         7.12852296774811    2.75434838946871    0.86042654446581
H         8.03554265810242    3.43574604162468    2.21494759368443
H         7.25343661019041    4.50578987106848    1.04908434200283
C         5.02952728353881    7.87683989598547    8.30829827061191
H         5.98794061867475    7.36937297980628    8.36887831579193
H         4.26507126476264    7.23431975591942    8.73943853833097
H         5.08182462257811    8.78251501748714    8.90707250830625
C         7.04705008515473    1.80544359310116    6.82715431584175
H         7.87144733124646    1.18448113635155    7.14429539643010
C        10.61851798793856    5.75143405031187    3.03925538825802
H        10.68680291088550    5.46907902513928    2.00016821722649
C         6.91354574724514   11.21919767337122    6.36650408876671
H         7.06334540613474   12.17975675662684    6.83673496707537
C         5.77689270587970    1.52438247523332    7.28986757514332
H         5.61069349690995    0.69051257769134    7.95574581714260
C         5.96731175468028   10.34176796276022    6.85450451088622
H         5.38098605506059   10.62746581841798    7.71482535308487
C         4.76770756732726    8.27097582292277    2.58641829955469
C         5.88002220486884    3.55169819502655    2.44406951123703
C         8.42161736946178    9.28599914932846    3.49601226719667
H         8.19113456596258    8.27181673020108    3.16188435043127
C        13.36295715644584    6.58779161100725    2.06506664477988
H        12.61884465843953    6.45438733062887    1.28460731085050
H        14.34609173028870    6.42295119015242    1.62995867266094
H        13.31016197235400    7.61623956480805    2.41687524945496
C         4.69496898272669    8.19895226469199    6.84887845956159
H         4.69258712231332    7.25729355653026    6.28287524294810
C         3.29934163091440    8.82425118373002    6.76069538884529
H         3.00696469059974    8.99528304674929    5.72697333446297
H         3.26745518855468    9.77723683766701    7.28362198769812
H         2.56539845752727    8.16275508430621    7.21649883739821
C        11.55850572332219    6.25548224410104    5.14874695678702
H        12.38067673588653    6.38639754063357    5.83183515269130
C        10.26902249058450    6.46613355526397    5.61246618859904
H        10.09192280660979    6.75372153303557    6.63813877811796
C         4.68361292773910    9.69106795599801    3.15130252458307
H         3.95259185841206   10.25388677876387    2.57043097591428
H         5.63076644197235   10.21430767193927    3.09745964938251
H         4.35677551488495    9.69136829901152    4.18521044676252
C         4.72346214303336    2.33012923371531    6.90483391889190
H         3.73449591708425    2.12097647172198    7.28463634664197
C         9.37356666053331    5.98203562611362    3.58980504873160
H         8.47470086086883    5.87782024527019    2.99842414186871
C         5.75046112432664    9.10866352037049    6.25778456529575
C        11.76378288580882    5.88071935635070    3.82639000020339
C         4.91285293503324    3.40038806309350    6.04525501785600
C         3.73624757294902    4.29438229753177    5.72266613401441
H         4.08534798868962    5.11085357194494    5.08260086245117
C         7.49624313818138    9.62820916958282    4.64347773587477
C         6.20326372193031    3.66221537615572    5.53098808159476
C         5.66567220547909    7.27924496594760    3.35791551941903
C         5.70104046785499    6.00022033770305    2.77513364425515
H         5.37754682377664    5.95531834951485    1.75468356106830
C         7.28336818557743    2.85681358820488    5.95478373367763
C         6.49620201025663    8.74508159695423    5.11420449030891
C         5.98405359105699    4.77695020881580    3.38081246188789

