98
CSD_code = NASKEY | q = 0 | S = 0 | Stoichiometry = C37H56FFeN3 | MND = 4
Fe       -1.39524543003121   -2.27251265164863    4.81648133611667
F        -2.98473648545360   -2.44363616665588    5.52019235078646
N         0.08353808950641   -1.01527866085262    4.22227533072978
N        -0.53063929535063   -3.56696189434470    3.59739871101058
C         1.79029438579699    0.08528535432411    2.69286444050191
C         0.97541259056376   -1.10275421475607    3.25537007087414
C         1.14782866550208   -2.29842836794140    2.55494179515513
H         1.91046452346807   -2.30127943059280    1.80207484329389
C         0.43963396382066   -3.49283238074662    2.71536467603414
C         0.94454938283179   -4.66656383048219    1.85091017384171
C         3.25844489660667   -0.30222211467169    2.44114936823332
H         3.83609247266854    0.59343986815588    2.22070411795082
H         3.37321011272594   -0.97469253869365    1.59623890398061
H         3.69163176568587   -0.77511985880886    3.31954999390420
C         1.12082421399476    0.44322458077530    1.35420435319614
H         1.66261974796747    1.25255677497237    0.86770989965291
H         0.09527466422482    0.76519839761163    1.52127837183705
H         1.10114035668816   -0.41142878709038    0.68317921370154
C         1.82097291423660    1.35571806344505    3.54678788875578
H         2.33356517720253    2.13829372290416    2.98717668573801
H         2.36072890955684    1.20020521973672    4.47568357153254
H         0.82655908861057    1.71491084827777    3.78325672010897
C         0.97615775710593   -4.26262394616359    0.36816795063544
H         1.26395676676210   -5.12039819101174   -0.23696800025657
H         1.68722402321787   -3.46668883876565    0.16944503780034
H        -0.00774876817907   -3.93208819160116    0.04366125270775
C         0.12566277473573   -5.95621790025344    1.93848599599022
H         0.61582862917289   -6.72226650133491    1.33788458297096
H        -0.88043562698847   -5.82189816453374    1.55355599371823
H         0.06057349123087   -6.32226214895374    2.95688336754579
C         2.36587836011749   -4.99779252484432    2.33590748231626
H         2.78525435023870   -5.80547556348290    1.73859877385833
H         2.33964088762582   -5.31680087231423    3.37584216094721
H         3.02622544251243   -4.13872297302442    2.26200755878342
C         0.04214669579822   -0.05019837073917    5.22632306830489
C         1.03447589280439   -0.05306957414668    6.23486993753314
C         0.91566264548845    0.83154688772729    7.29107842361344
H         1.65467947598734    0.83356617495637    8.07680608517768
C        -0.13988494783784    1.72424135340031    7.36399720906141
H        -0.20707465843977    2.41423195073675    8.19370151387430
C        -1.09682257931456    1.73971860290939    6.36913711163866
H        -1.90830428372686    2.45077096841341    6.42641230478623
C        -1.02923436309155    0.86200230432272    5.29690344378804
C         2.18373153971233   -1.03363340362330    6.15786436395413
H         2.41267435437483   -1.20159544274534    5.10203575577467
C         1.75833386297414   -2.38144520959263    6.74329097479517
H         0.89822529648306   -2.75993870944662    6.19455463351166
H         1.47720877603121   -2.27075359090786    7.78751394631240
H         2.57490709397133   -3.09724728666338    6.66972155724898
C         3.45931913682319   -0.53558461265711    6.83832738192936
H         3.70559131835056    0.47597450886995    6.52084974839090
H         4.29087695767692   -1.18760541891476    6.57719157778080
H         3.35852106013389   -0.54583529385087    7.92094067124431
C        -2.07744863983500    0.92770322638058    4.20633247098175
H        -1.86598819473669    0.12596639525535    3.48580529510259
C        -2.03100647994282    2.26941024451369    3.46769630014364
H        -1.05970285702302    2.43546559147118    3.00759883043901
H        -2.22657343647015    3.09267354263271    4.15112339209744
H        -2.78646798181426    2.28868638561257    2.68453380999333
C        -3.48123114588137    0.70044658675125    4.77152326103133
H        -3.52386665976809   -0.24619611048157    5.30175228455938
H        -4.20980551895631    0.67774870236608    3.96386698620897
H        -3.75883199186875    1.49774274394515    5.45742708862201
C        -1.54489927551266   -4.52385494047614    3.69139886639012
C        -1.54033440474539   -5.47702306216171    4.72965084517154
C        -2.60883376410641   -6.35168849126668    4.84687679084242
H        -2.61737766912222   -7.08015836534993    5.64356712506559
C        -3.67017543305498   -6.30226212592215    3.96415597081061
H        -4.49795890112571   -6.98758111357945    4.07259881586940
C        -3.67805777202781   -5.36385462098469    2.94797317599806
H        -4.52135548733083   -5.32428630266605    2.27552456564115
C        -2.63104006198503   -4.47269044074844    2.78777994061014
C        -0.39787624183686   -5.52493960897831    5.71705044737867
H         0.38654786394259   -4.85002892749958    5.35738782357934
C        -0.88489631301075   -5.01103419898134    7.07322826192966
H        -1.33110605315179   -4.02546868971472    6.95409040245821
H        -0.05584581716863   -4.93781059380708    7.77314197068607
H        -1.63432194529046   -5.68152421434199    7.48734802611495
C         0.20175866749406   -6.92577251168882    5.86093611524085
H         0.53235896135188   -7.31482251882713    4.89977901121008
H        -0.52111105616432   -7.62226223887870    6.27803390761836
H         1.06042614685909   -6.89016890242488    6.52848223251874
C        -2.67469163888564   -3.41878515619974    1.70382400340251
H        -1.66392798910930   -3.02264624468274    1.56605251640061
C        -3.56472381586226   -2.26361733890050    2.16967024925726
H        -3.55895132764006   -1.45727730082351    1.43886695436816
H        -3.19905943708144   -1.87954290737498    3.12318802484386
H        -4.58782901365870   -2.60384411582216    2.31075358973892
C        -3.15740531767226   -3.96263339858567    0.35782380522985
H        -2.59322149773961   -4.84777643446856    0.07020062800330
H        -3.02626701439005   -3.20609593418106   -0.41373437383758
H        -4.21169013558221   -4.22492571482035    0.39133824580176
N        -1.15011013276534   -1.69160631451520    7.26783520348879
C        -1.83904858892099   -1.12805422204768    7.98800991140601
C        -2.70103651297709   -0.41897402464783    8.88629136032542
H        -2.21133625653052    0.49843235621316    9.20911577152888
H        -2.92427684652623   -1.04241346270069    9.75109498274832
H        -3.62711908660864   -0.17538718663498    8.36742042922590

