80
CSD_code = NASLEB | q = 0 | S = 0 | Stoichiometry = C29H43Br2N3OPdSi | MND = 4
Pd        4.40731956764270   13.20517731823920    6.59308816126329
Br        3.31750593735359   13.37750955121342    8.78619130864891
Br        5.15323232545319   12.64781874480414    4.31462560287251
Si        7.13933433199736   17.15954388027714    6.61716419331591
O         7.86053671429371   16.23599425375656    7.78051443333032
N         1.97379153072270   11.74085448915372    5.88746747553748
N         1.76930681593306   13.83225073621812    5.29567533562958
C         6.19796247584730   13.40885614726961    7.25814769783475
C         2.58854414374603   12.93541693260876    5.86727541673856
C         0.58410453385355   13.21434577563333    4.95049828719185
C        -0.58534054725358   13.67766625335275    4.36580557965866
H        -0.71266993029278   14.70967312277444    4.08315867583825
C        -1.60238221864124   12.76738254025269    4.15682060879864
H        -2.52349494173636   13.10005380799402    3.70352456484793
C        -1.46581518640564   11.43059060624374    4.51921824936900
H        -2.28240949048212   10.74872212122884    4.33812119147423
C        -0.31036510883667   10.95805154717702    5.10917829167031
H        -0.22769938249589    9.92011466524183    5.38613202701338
C         0.71903568513911   11.86234907969238    5.32777388069994
C         2.16731545946113   15.21292438228081    5.07339303608140
H         3.21758623153003   15.27350106040196    5.42441333305751
C         2.15503487238807   15.54799169253772    3.58495204768118
H         2.77103480361027   14.83501872591988    3.04045248852829
H         2.56392581717243   16.54312036287917    3.43340757270440
H         1.14880865353984   15.52100306061987    3.17739954315559
C         1.32185444734108   16.16150649904846    5.91806201678503
H         0.28246141853559   16.15085845304563    5.60133495319023
H         1.70378857095393   17.17451474103819    5.82530626146463
H         1.36902336117712   15.86754264592630    6.96504183176509
C         2.61633132753249   10.53884751354499    6.40663010652669
H         3.62404400141459   10.85748967479677    6.76472516061035
C         1.84698678633133    9.98357818434901    7.60152169159561
H         1.73896246363780   10.75200873666190    8.36468323446142
H         2.39544210145312    9.14888387257177    8.02995127915125
H         0.85878385833544    9.63740211453835    7.31253761382860
C         2.81639105509052    9.51930898525618    5.28800006354935
H         1.86527583679420    9.16560828206175    4.89954062210795
H         3.37514182239590    8.66772793905781    5.66711753542598
H         3.38125485439402    9.96615334853112    4.47141750295060
N         7.31853800218842   13.57519469515603    7.53735280326815
C         8.58412483030829   13.96893078271323    7.81392113836211
C         9.59522880003546   13.02959033750865    7.98789117241280
H         9.35582585227427   11.97978990727659    7.91235818413562
C        10.88352273118383   13.45219223356793    8.24967413047210
H        11.66888007061402   12.72509561295338    8.38321392260797
C        11.16198180773933   14.80713077761485    8.34094641669419
H        12.16837792349837   15.13755640646478    8.54717463371241
C        10.15928104465063   15.74501147674211    8.17018333394031
H        10.36569963471805   16.80107266173755    8.24710665744538
C         8.85611100920749   15.34764123820792    7.90092324770676
C         6.63564500964137   16.05956463655370    5.12407231318485
H         5.96990195360776   15.27786800231697    5.53354996053253
C         7.80817588493065   15.33284442577423    4.46340708600305
H         7.43660643093356   14.57101050508482    3.78059738425415
H         8.44274399541536   14.84487482435314    5.20034684065177
H         8.42261836073483   16.02540123290002    3.89493373863004
C         5.83009889201479   16.80166833538102    4.05780791613099
H         6.45207484969469   17.53144267896842    3.54524111443959
H         4.98380370426439   17.32253332568457    4.49985633993325
H         5.45849548560326   16.09573276525915    3.31725726350960
C         5.56766709448431   17.71991101859080    7.56283375214702
H         4.94241287692635   18.30940449274664    6.88451815386045
C         4.74759087302944   16.52189261525682    8.03512367948958
H         5.31513303794367   15.94680969436724    8.76403796706810
H         4.48815880306948   15.86151387082749    7.19641244012510
H         3.82205240183030   16.84255522756995    8.51039947160490
C         5.90293118715593   18.59886869047634    8.76765167867871
H         4.99372337572275   18.88524946713298    9.29418665257312
H         6.42118577437082   19.50438964316704    8.46341856728330
H         6.53968100328989   18.05519960600679    9.46070450641391
C         8.29028858524741   18.64908945135696    6.23461320034556
H         8.65144852659779   19.01020149585635    7.20509907754029
C         7.55592965058953   19.80888697652085    5.56437580650969
H         8.22330975791395   20.66092165196532    5.44212789775691
H         6.70244249715184   20.12619673914901    6.15690731338332
H         7.19615227044545   19.51928278259474    4.58070407498387
C         9.52014618003384   18.27870395585778    5.40507619628272
H         9.23468801234308   18.05609103848447    4.38015066167731
H        10.02854969112481   17.40852292133152    5.81439076624156
H        10.22652712838678   19.10789995012283    5.38088366159143

