62
CSD_code = NASNAX | q = 0 | S = 0 | Stoichiometry = C25H33N3Pt | MND = 4
Pt       -1.66967822244462    3.91197479105286    5.88432942442200
N        -4.03504028582556    7.98119422276290    5.87285497574114
N        -0.13427197781238    4.15347077583035    4.43521787983380
N        -3.26850970734691    3.02331755263347    6.97630601995863
C        -1.85058759355675    2.20359836970468    4.91136979512968
C        -2.94485874737739    1.38679005793511    5.15533265833079
C        -3.04606258568415    0.16741360566766    4.50522874882980
C        -2.04720468131154   -0.20372987003018    3.61335938660519
C        -0.94626465572503    0.60870035294362    3.37016250277235
C        -0.84501300049151    1.81992286385612    4.03564525482330
C         0.30430467580901    2.80102442344035    3.97862848684663
C         1.03299088420103    4.94114906085664    4.82859216956376
C        -0.80988916868448    4.82526180460068    3.31994396939598
C        -3.93824233233111    2.00303046743672    6.11329608790570
C        -2.59557127827130    2.33037724347568    8.08035166300662
C        -4.27217666631702    3.92765950896933    7.53176235409837
C        -1.37194494621809    5.69122657526458    6.94338597163390
C        -1.95842087789095    6.92388994537375    6.70552334670294
C        -1.63700707500141    8.07154732462685    7.45460358417255
C        -0.73404436495798    8.01409063194395    8.47748307700442
C        -0.07975928828586    6.80084333481977    8.76978052787592
C        -0.39447527407824    5.65805053278779    7.98705414879936
C         0.30431845425541    4.45899803595522    8.25610459581293
C         1.24024805865943    4.37953699304247    9.24824193441106
C         1.52604500976808    5.50774470488554   10.03304397726884
C         0.88225659795087    6.68959224499644    9.79459900741619
C        -2.94425289582607    7.07265165585336    5.56902390748558
C        -4.86394425352108    7.52071161912222    6.96233579278022
C        -4.82830005244643    8.28351605515456    4.70461948342415
H        -3.88701534002271   -0.49144403530391    4.67816370735260
H        -2.12640532972679   -1.15066078506285    3.09867577884831
H        -0.18136039230636    0.28627115864340    2.67577177879047
H         0.74489403163916    2.87742457310250    2.97441896974353
H         1.08841820274928    2.45409536526973    4.66132303412459
H         1.74786384910161    5.02159860580966    3.99997463306639
H         1.52798379957343    4.47832682404600    5.68172369785862
H         0.71565473026768    5.94094113241743    5.12440603652895
H        -1.17761144724803    5.79727991647563    3.64775409545953
H        -1.65037482114470    4.21880569243289    2.98027445619496
H        -0.11706311810635    4.97118302930410    2.48060930112460
H        -4.43430668791574    1.25502072668967    6.74733801318841
H        -4.71242919550113    2.51250114230305    5.52847151439759
H        -2.07235916527704    3.05423927473215    8.70607766314973
H        -1.87848945866568    1.61207678710807    7.68110720266712
H        -3.32584419690413    1.79106661121786    8.69772926076823
H        -5.01887545989192    3.37607011918784    8.11745406872111
H        -4.77697896497482    4.45742397673879    6.72528767143750
H        -3.78515584834489    4.66065603682850    8.17426175909031
H        -2.13391368117024    8.99991270965292    7.20907281113788
H        -0.50049604032101    8.89339769028934    9.06333465890718
H         0.08170156141160    3.58860429270670    7.63340200683617
H         1.76608419653836    3.45324797914538    9.43780654445285
H         2.26338176246094    5.43437502576008   10.82056613066985
H         1.10820090853100    7.56535701227271   10.38894483422362
H        -2.42002620168934    7.50229014105778    4.70516799131702
H        -3.30189286435650    6.05790592697797    5.27217709949893
H        -5.47961257887776    6.64667803259945    6.68931851087758
H        -5.53208638096099    8.32673195489089    7.26693725385470
H        -4.23006858109996    7.25504633054274    7.80559644354444
H        -5.32817053220172    7.39372283860816    4.28353644298164
H        -4.19077996772557    8.71738109472474    3.93466924491739
H        -5.59331053708236    9.01241793373953    4.97156665221940

