58
CSD_code = NASNAZ | q = 0 | S = 0 | Stoichiometry = C15H32B9IrS | MND = 10
S        -6.76005151828845    1.63542987847919    1.26936478813653
C        -9.52572695067353    2.76459554270494    2.01364886104032
C       -10.35648193266334    3.16368375186341    3.29318791113420
Ir       -8.95101305708420    1.54834246981249    3.77023945162474
B        -7.85392649010353    2.76428547217193    2.33216364762138
B        -8.61724266717277    4.10895399777497    1.42605514226826
H        -8.42012136266642    4.15987033193113    0.26843780344408
B       -10.21328744706795    4.36512041201472    2.05298260071838
H       -11.16462505124742    4.53809645473372    1.38559815847345
B        -9.32835650343827    3.47762363580657    4.63782359448243
H        -9.74821219532764    3.30222842148133    5.72596323818606
B        -7.64386070370407    3.27138579146677    4.04345438483308
H        -6.71831396743417    2.98792062959514    4.71562189386858
B        -7.44123652192717    4.44874633954829    2.71252964135668
H        -6.37932049131778    4.90146496979925    2.48117378969120
B        -8.91689760271119    5.43520690173777    2.56448135363253
H        -8.88947141721660    6.56281848383911    2.23453417831782
B       -10.09355283355374    4.79826721886404    3.73582392134180
H       -10.98133894380203    5.36872146329661    4.25430324733312
B        -8.37318582023864    4.88823427566143    4.17332499248897
H        -7.97271090813043    5.65158587649770    4.97347998509632
C       -10.12175490489129    1.81350384282791    0.98861344643802
H       -10.95942128574919    2.26727819652873    0.45921795016781
H       -10.47276872801843    0.88429444902788    1.43300963728333
H        -9.36080257336746    1.55174175525331    0.25494185471979
C       -11.74914771777999    2.58840082917108    3.49036107513734
H       -12.51164008092004    3.23893176362352    3.06122299170025
H       -11.96496551340013    2.49007485514668    4.55229276159745
H       -11.86172037080801    1.60786407148813    3.03261378666091
C        -5.10278003427997    2.25861188538437    1.69165612841242
H        -4.38129545996549    1.55113632894257    1.29469873966596
H        -5.00743432945529    2.33422163808188    2.76896392029075
H        -4.95970975934353    3.23161050774185    1.23235752702707
C       -10.00743663455157   -0.65775983975184    3.96641143841736
C        -9.84796941727401   -0.03451932298344    5.22912717028926
C        -8.45335395920719    0.22575101883722    5.42805982005417
C        -7.75613091132219   -0.25580428827577    4.26712021586433
C        -8.72594775405214   -0.78782710663654    3.36918309695213
C       -11.28555430320603   -1.19749924518200    3.40741901143177
H       -11.37308310447406   -2.26103843391738    3.63747039758696
H       -11.32716360516501   -1.09464899251645    2.32286083683505
H       -12.15133552157000   -0.69479066868300    3.83480149956891
C       -10.90805662245944    0.16612548120537    6.26457817324881
H       -10.89125602173920   -0.65720619014357    6.98090264887084
H       -11.90015389229496    0.20105384362317    5.81972989205887
H       -10.74329177447959    1.08993239925004    6.81547261181773
C        -7.82801082632460    0.61532121756463    6.73081567898339
H        -7.68588423167668   -0.26952802037914    7.35344504393872
H        -8.45795058804629    1.31556939633991    7.27229241505622
H        -6.85994188995083    1.08142579827121    6.57351238725834
C        -6.27853947998077   -0.42368485528947    4.11963967052949
H        -5.98813791197653   -1.43526823690720    4.40758145273185
H        -5.74046073288727    0.27848958269911    4.75020576069592
H        -5.97942399873191   -0.26913874817628    3.08557478642184
C        -8.40252081157432   -1.47883451381799    2.08556991143380
H        -7.89852504118364   -2.42478033481392    2.28738233789057
H        -7.73467304764554   -0.86715590230908    1.47955422322944
H        -9.30002277441805   -1.68983648029736    1.50954711465772

