61
CSD_code = NASPEC | q = 0 | S = 0 | Stoichiometry = C19H32MoN3O5P | MND = 6
Mo        0.42159742409196    1.27091298943606    7.48101292226150
P        -0.60543287719990    4.97843182609083   10.36310908346539
N        -0.03926842311471    3.57080568101420    9.40524492193205
N         0.65617312350666    6.04520734438381    9.98522930824980
N        -0.20935554251136    4.32745309224992   11.87254022050521
O         3.23516554460905    2.47481576598258    8.00737868844837
O         0.43418678063954    2.50018389102116    4.62886281732964
O         1.65546638676516   -1.34930944234651    6.35173485280201
O        -2.45438874034653    0.19336316419918    7.01560135537507
O         0.43356203476429    0.02728572991584   10.32591660940566
C         2.20658511758689    2.02067624630712    7.80101290166309
C         0.42258870210732    2.05746141142058    5.67965867091571
C         1.20434374100060   -0.38637766328643    6.76353482887489
C        -1.39616328402509    0.58245829667155    7.18366302427048
C         0.41713349477095    0.48778115215617    9.27917484429869
C        -0.42216087257506    3.07360967138723    8.25917332145131
C        -1.45022195080986    3.90328910247493    7.56443817347356
C         1.92804002641583    5.67818328399292    9.36574774280129
C         1.92858259077632    5.84070387344934    7.84403699452517
C         3.10311723907441    6.45043218320505    9.97743451412286
C         0.24303457961288    7.44767063762779    9.89542477064991
C        -0.17902035550258    7.94151130278565   11.27637800395495
C        -0.88437985624128    7.67638831379701    8.88831264944116
C        -1.32990382421622    3.76684072296459   12.62483840257600
C        -1.99353575113861    2.63151301479598   11.84569785182461
C        -2.35798740815406    4.84100322378326   12.97559018483014
C         1.11123578498917    4.31443267938915   12.47741926760906
C         1.66098551437092    2.89522569869027   12.65657269826166
C         1.14583151514255    5.07306937934594   13.80764575901905
H         0.61259086363166    3.00571348806706    9.94750419451710
H        -1.72255519411321    4.78842112275101    8.14718086949773
H        -2.34087148944487    3.29754729091364    7.38941990955056
H        -1.08279210329656    4.21569931315139    6.58642358887337
H         2.08902269050375    4.61705299366021    9.58091889653836
H         1.13388144651527    5.24671486487246    7.39707466751521
H         2.87866219207674    5.49512052470744    7.44380936434192
H         1.79425631610489    6.88156062629691    7.55986547671549
H         3.15881738926211    7.46605943310432    9.59375207765854
H         4.03238009495060    5.94620035040785    9.72450556837754
H         3.01827532749207    6.49704551531432   11.06064145481647
H         1.11214947200895    8.02480768045964    9.57120263783177
H        -1.01211910117749    7.34006033028662   11.63691996502395
H        -0.48917138970979    8.98254693191086   11.23235793017821
H         0.64660291771876    7.85101522622148   11.97796075017999
H        -0.62374071772911    7.26259777617008    7.91780408514317
H        -1.07181898914110    8.74139658736451    8.77349425273461
H        -1.79922964553090    7.20219553210852    9.23829435807028
H        -0.93075346303437    3.35498097090641   13.55562793872658
H        -2.42015519118804    3.01424124435305   10.91926538638637
H        -2.79078519267315    2.18511755672524   12.43520728903844
H        -1.26962030976166    1.85667886008917   11.60199671296511
H        -1.89046344576842    5.64535725754088   13.53800531609450
H        -3.15920694776982    4.41595498945097   13.57490549212287
H        -2.78678518926435    5.25286385557282   12.06406802708458
H         1.76123923035218    4.84774799887734   11.78042430214225
H         1.03447639622749    2.31281927918097   13.32780246254320
H         2.66181196882525    2.94099474779772   13.07913815089858
H         1.71948558602248    2.36846554597622   11.70524287097555
H         0.71526940746801    6.06363442733796   13.68409752621846
H         2.17512905444938    5.18052520312692   14.14151388782655
H         0.59190730163104    4.54883990252592   14.58218920511744

