72
CSD_code = NASPII | q = 0 | S = 0 | Stoichiometry = C28H35CoN2O6 | MND = 6
H         4.73614807099281    0.32118301439558    4.02880248567845
Co        6.61277738430599    1.67532349150356    5.27772919088185
N         6.60431943050218    1.23703386560120    7.09533672955377
N         7.12228576431311    3.38495206095519    5.77260238694490
O         6.05448210610039   -0.07801427668046    4.77341831849075
O         6.50711339143781    2.09556456739288    3.46462319658130
C         6.71370452598186    2.42854901447828    7.91458045932235
H         5.70953232073255    2.87877507014504    7.94259142290342
C         7.62992143389694    3.38638681718289    7.12963143047613
H         8.62458755110255    2.92024048684930    7.08413623574563
C         7.73333755238479    4.74033934569922    7.82919024369981
H         6.75258908543367    5.22291869346972    7.84158952544139
H         8.43475502196454    5.38644628580962    7.29914838122807
C         8.23469104851781    4.54218434383899    9.25771278454345
H         9.24068006408055    4.11943060825674    9.22932493757413
H         8.29081266461394    5.50881327419484    9.76159729322567
C         7.31498526741519    3.60688058252200   10.03247702711543
H         6.31827387358872    4.04923671191916   10.10039833282350
H         7.69143066570514    3.47443850537919   11.04823304160634
C         7.22055896298855    2.24698305569190    9.34450683178532
H         8.20506647027558    1.77537871090504    9.32130339753061
H         6.53795429010180    1.61147803194411    9.91245176619086
C         6.66596097665404    0.05162557132364    7.58472092111197
H         6.81802514774381   -0.08114058508598    8.65444951595289
C         6.50419701985048   -1.16459809584863    6.85643391724933
C         6.17788253902849   -1.16986305586698    5.47854965002042
C         5.94556962212353   -2.41756740625904    4.84339515681249
C         6.08474737314655   -3.58156825501545    5.55928980912424
H         5.92137708351420   -4.52668489361779    5.05950516443322
C         6.43730138176982   -3.59079242553889    6.91557934174488
C         6.63233346353505   -2.38582640632775    7.54307896994431
H         6.89596035863072   -2.36102343392547    8.59153021263088
C         5.55819450097138   -2.42037316040671    3.39515937516933
H         5.59297743325000   -3.42761461198794    2.98882295577088
H         6.23285326208737   -1.78230877709434    2.82731892971966
H         4.54846808019093   -2.02716570424453    3.27040671629767
C         6.59221849846921   -4.89614090735724    7.63657224770853
H         6.77414832927951   -4.73556816911229    8.69599114734401
H         7.43032857957972   -5.45679500433270    7.22378956383508
H         5.69610107492782   -5.50482401964319    7.52349262974132
C         7.11874203056370    4.43288251834146    5.02531522207773
H         7.43791158972851    5.38685896774935    5.44092311352402
C         6.72769648663723    4.47046695968331    3.65999919266137
C         6.44172933664711    3.27279077442852    2.94911286903848
C         6.06267399608236    3.38778194000060    1.57676000914581
C         5.99409115619557    4.62139302845730    0.98595345827911
H         5.70473103595886    4.69052401507786   -0.05420255466418
C         6.29007868396905    5.80721551138370    1.68027395970746
C         6.65317173036457    5.71245523906860    2.99786040201178
H         6.88708585067783    6.60703890152476    3.55923993520636
C         5.75135328474496    2.12366923359731    0.83561832285089
H         5.45372191656938    2.33392256414823   -0.18839849303463
H         4.95272803148114    1.58036659466584    1.34014566467220
H         6.62586404456888    1.47489346732113    0.82955515370122
C         6.20671616016208    7.12470549900070    0.96859285904551
H         5.20819393550316    7.27653994489837    0.55977179916105
H         6.91294284105215    7.15297013577330    0.13937483244743
H         6.43419934228474    7.94541155423600    1.64400044847257
O         8.42451430505769    1.22716254313837    5.31688860851169
O        10.39495812896844    0.39473342393490    4.95222577110350
C         9.27227345379183    0.63479356867176    4.54304838447285
C         8.86290077975359    0.28214887150557    3.12259159214642
H         9.00520109229365    1.16390552222935    2.50028684024030
H         7.81519818747689    0.00314208994958    3.09266872217406
H         9.49427501741144   -0.52156085160449    2.75332281809129
O         4.66507430744292    2.27294881863139    5.31672860559083
O         3.85741340583450    0.81175821671307    3.82965429357140
C         3.80869290007613    1.91199018385412    4.51321236101889
C         2.59200623828950    2.75705010777983    4.25177053849705
H         1.73280541466276    2.12447624268642    4.04946530269866
H         2.79145065777046    3.36361126583647    3.36906165398301
H         2.40205298679125    3.41616022620653    5.09300666964297

