55
CSD_code = NASPUU | q = 0 | S = 0 | Stoichiometry = C22H25CoN2O5 | MND = 6
Co        9.17515565848869   -6.54603564379329    5.82020081986337
N         8.89983328467104   -4.78558332725667    5.22376572099393
N        11.01587011199857   -6.15952781174946    5.69099240794741
O         7.33015129237811   -6.92301406869156    5.88567579668576
O         9.44575015405644   -8.26735243420621    6.04982752045683
O         8.97766584191054   -6.93514464000068    3.88309203434805
O        11.04606196428569   -6.91918602331382    3.05639534693402
O         9.12432537055291   -5.94907041912206    7.30520349604012
C        10.07028513810398   -3.96180500594124    5.41909531419640
H        10.06672684752001   -3.63722248244216    6.46748707051614
H        10.05890174324441   -3.08603334978388    4.76077645207653
C        11.29496004683545   -4.83821158788535    5.16841769420399
H        11.46045137901857   -4.95547046754514    4.08972037843218
H        12.19324627877124   -4.41559994154286    5.62995696375131
C         7.79415460522332   -4.29269375213428    4.77311810265060
H         7.80234194098988   -3.25436540139647    4.43445027192017
C         6.56462311076856   -4.97927404710683    4.69196902808430
C         6.41302164843122   -6.27900607792787    5.26391009408086
C         5.12317258897827   -6.89580599464126    5.15936395047787
C         4.09676508839482   -6.24328092230102    4.53535024378846
H         3.13261483505156   -6.72850141524771    4.46215783273390
C         4.24191666993457   -4.95679997026836    3.97818273484828
C         5.46291573205519   -4.34918357158071    4.06723668801965
H         5.60956592833382   -3.36317773442821    3.64802212112692
C         4.97047335121469   -8.25905020156898    5.75523640937522
H         5.74620568639897   -8.91459863635374    5.36392925725014
H         3.99029723993143   -8.67657674611543    5.54003488267876
H         5.11377878652946   -8.20578376332943    6.83337653151480
C         3.06822217931975   -4.30224616550938    3.31392764658665
H         2.24372822499028   -4.19727170779018    4.01842511565437
H         2.71717536604064   -4.90809878005738    2.47908938760300
H         3.33324941220594   -3.31656651681606    2.94029307763056
C        11.98929073997398   -6.96396956243403    5.92314494704221
H        13.00993155628222   -6.60031166029818    5.79785371630087
C        11.83598509590345   -8.33108420831272    6.28153570916799
C        10.54341073177218   -8.91774499221897    6.28705387513557
C        10.43743923930157  -10.31182487317095    6.56245994475197
C        11.57099026631287  -11.03520432656831    6.83934097956652
H        11.47821739824453  -12.09027201983620    7.05776585077579
C        12.85111208176823  -10.45935084576955    6.84403936240913
C        12.96584977618104   -9.12036931329531    6.55794360082741
H        13.93923632159492   -8.65132098893103    6.53999496523618
C         9.07221500719957  -10.92024853341389    6.55436068864537
H         9.10985248846539  -11.97569962722014    6.81040756515695
H         8.62288355894516  -10.80055323489030    5.56959301352391
H         8.43281671325891  -10.39278572508634    7.26032127668346
C        14.04547434486035  -11.30852566145935    7.15390235355627
H        13.97589353520986  -11.70158163738655    8.16770714861369
H        14.96426315482066  -10.73508005860990    7.06648243065372
H        14.09615571329734  -12.15620796131245    6.47202252383306
C         9.84577124524620   -7.13990279672891    2.96796068044998
C         9.25393475670427   -7.70684994074516    1.67703515358012
H         9.87904839763783   -7.42772900640382    0.83361190368285
H         8.23779318643697   -7.34657647107009    1.54588602047480
H         9.23522718395673   -8.79146794699620    1.76119589746187

