56
CSD_code = NASRIK | q = 1 | S = 0 | Stoichiometry = C26H24MoN3O2(1+) | MND = 9
Mo        9.02916987961952    6.45910687518145    7.98280303598526
O         8.09900578149731    4.14071454479673    6.16569132278541
O        10.06172190089488    6.83474983300148    5.11510567811260
N         9.61001256978084    3.64734004823377    9.34668764281455
N        11.33715816130963    4.20997777244971    8.21093253963456
N        10.78713192267982    7.22173162817395    8.61231093258946
C         7.47793998475596    6.88428162781689    9.76670529039493
H         7.26342687316199    6.33869098281220   10.67366330885925
C         8.35069603037435    7.97071257733280    9.66065590804416
H         8.90957241017156    8.40665136722692   10.48095148846814
C         8.18097225905846    8.56520397775583    8.37032282868040
H         8.57746495522770    9.52614704436666    8.06762660762220
C         7.19942994176403    7.83265915650033    7.68898355191244
H         6.72999084940639    8.10818631552289    6.75401322108005
C         6.79685099666367    6.75617403846217    8.53089883419968
H         5.93248005115248    6.12520225384358    8.35402340542147
C        10.10455119789569    4.63394260705728    8.57028685207465
C        10.51923975696837    2.63557656408261    9.48720308050488
H        10.32227430289159    1.76450519847904   10.07666372862741
C        11.60583355330736    2.98708942035203    8.76699568009378
H        12.52961231391732    2.47409639516208    8.59841764271785
C         8.33907127739457    3.62171781313485   10.02049385499770
H         7.96135039396728    2.59564383805818   10.00382918664874
H         7.63492669136411    4.24651712869168    9.45911441192037
C         8.44279687043321    4.09506906991869   11.45502234155883
C         7.55700364381930    3.60186685222105   12.40434128256771
H         6.81493689241950    2.87229051148432   12.11533180472239
C         7.61873163833371    4.04191612054187   13.71486909372959
H         6.92545497576746    3.65203063436532   14.44359558916467
C         8.57048556701609    4.97497088334858   14.09034541801617
H         8.62189194239273    5.31521979727800   15.11261975916852
C         9.45794962851852    5.46824410114256   13.14924582153953
H        10.20366284959558    6.19366762485558   13.43803631582657
C         9.39415723844394    5.03282559564842   11.83677949038579
H        10.09425407430758    5.42665237451245   11.10801972320806
C        12.28532244771724    4.81946640506404    7.29871078778281
H        13.19812448431610    5.06697867153472    7.85104983027568
H        11.85030392968214    5.73924263713848    6.89685720426772
C        12.60375506246624    3.86672486265946    6.16947822391975
C        11.59163958272021    3.48315906897814    5.29791116655942
H        10.59478053127905    3.88143426732312    5.42928100943152
C        11.85854414232742    2.60295560619121    4.26560244786424
H        11.06808435277396    2.31243706769093    3.59139807958526
C        13.13881573100506    2.10111000550130    4.09541151508061
H        13.34777908446917    1.41731186391953    3.28761358740087
C        14.15014795384179    2.48033201760176    4.96070343081876
H        15.14892841179445    2.09326766062442    4.83067297567844
C        13.88295603957022    3.35800515227509    5.99808428672845
H        14.67596236502006    3.65294533905164    6.67071347414403
C         8.38077784454507    5.00670213855401    6.86318642450238
C         9.75768771358737    6.67230522864085    6.20890651009995
C        11.75040181773861    7.75268718432820    8.96013343819944
C        12.93956216725183    8.42019439718111    9.37976082790371
H        13.41417788707014    7.87915965062466   10.19905909272856
H        12.69252335335809    9.42765824603140    9.71689520025021
H        13.63571572119107    8.49384995527425    8.54328381269752

