69
CSD_code = NASTOQ | q = 1 | S = 0 | Stoichiometry = C26H28LaN8O6(1+) | MND = 10
La        6.97306678612357    9.76342072062429   -1.33527017287861
O         8.23065505208124    8.45384066874475   -0.04081859187532
O         9.26305385863151    9.63155644800358   -1.45860323921808
O        10.27275167109321    8.92741931784401    0.26372414568529
O         5.38820514885957    8.13434287947671   -1.08851994886034
O         7.01525783580442    7.77179632653658   -2.38681659528277
O         6.12329928486555    6.15846888097816   -1.33114970850683
N         7.45471333330425   12.41091648189694   -2.01655608886907
N         4.94766697221369   11.54244451297938   -0.69373779604512
N         5.82037670103748    9.55459350886214    1.13861880282796
N         4.94969175650851   10.07814603773474   -3.06069805740233
N         8.30325950597460   11.34791391812062    0.39568466168690
N         8.00072821560061   10.26453214409260   -3.79571955951879
N         9.28401892939926    8.99708452275674   -0.39720883235292
N         6.18235024418362    7.31754191240282   -1.58664106651103
C         6.52869975682898   13.34317449613062   -1.36200226364100
C         5.08835877142405   12.83422009376829   -1.37699833687319
C         4.88113468080224   11.74602105627458    0.76023318336339
C         4.87956410775550   10.43164895975431    1.49852765495211
C         3.95680401169607   10.17270205795917    2.50375366539992
C         4.00411154058984    8.95344988879751    3.16090040801438
C         4.97732500781284    8.04122682335259    2.78846078250282
C         5.86125960040971    8.38492298744585    1.77736579319066
C         3.70462669359931   10.89508027554038   -1.12716123039685
C         3.75577206131324   10.36371433653446   -2.53491762540040
C         2.56394879132974   10.13366672259628   -3.21600893099894
C         2.60281159352871    9.56789787602752   -4.47730682290372
C         3.84057810169177    9.26098574010730   -5.02201416748767
C         4.97608380238377    9.53769154522052   -4.28153559847719
C         8.82468221935167   12.69343725700599   -1.57439769729135
C         9.11094469006359   12.25500398297624   -0.16218444985332
C        10.23340572422265   12.75762675415816    0.48711302526107
C        10.54720230246111   12.29673157909765    1.75263210746329
C         9.70915452329282   11.36074888555094    2.33830144314644
C         8.60771950949668   10.92367657807509    1.62621423883352
C         7.39422701495223   12.57887373580345   -3.47540663104555
C         8.21125604858687   11.52584851916740   -4.18056049369646
C         9.11396514470216   11.86457895310769   -5.18045186947297
C         9.83276282815856   10.85773327547802   -5.80497157016778
C         9.61887909831771    9.54911176987140   -5.40475803708446
C         8.69600499338945    9.30136378796150   -4.40014001431227
H         6.85658139332993   13.47472031681661   -0.32954626172974
H         6.55938509230523   14.33026645239729   -1.84807264475069
H         4.75834016040013   12.70711773165717   -2.40954922053638
H         4.44114024040717   13.59421840256318   -0.91314087874005
H         3.98468810731590   12.32513913222856    1.03199159772629
H         5.76321775675973   12.31030778449202    1.07546261541010
H         3.21439351616533   10.91094500011956    2.76578966377880
H         3.29637515974695    8.72381160279196    3.94242794896481
H         5.05287008892182    7.07940845530762    3.26851912227246
H         6.64264998766789    7.69936315144974    1.47546102636152
H         3.52565010089010   10.03107420055505   -0.47788511609566
H         2.84810926363136   11.58026162433126   -1.02315777389129
H         1.62209459603050   10.38410968380154   -2.75314152024511
H         1.69189784137038    9.36929267598237   -5.02020755097502
H         3.92416468456394    8.81364656273355   -5.99894332306963
H         5.95713266092618    9.31706184299083   -4.68051348993884
H         9.51351214107406   12.13525691418904   -2.21785895146715
H         9.05855325398985   13.76513398482991   -1.67910107129684
H        10.85796232408053   13.48552549270245   -0.00681789555526
H        11.42392110781559   12.65646710160512    2.26773499417802
H         9.91096937379365   10.96627006611719    3.32006069414930
H         7.93092387818191   10.19814010228269    2.05767111441931
H         6.35440192792348   12.47285712764157   -3.79722148220008
H         7.74610508602081   13.58054910984073   -3.76781899687936
H         9.25294389252833   12.89669554468374   -5.46366418962891
H        10.54360036780398   11.09247515122395   -6.58217661412143
H        10.15650262597811    8.73362498517205   -5.86032245763525
H         8.49653545653341    8.29010358067665   -4.06975385440838

