63
CSD_code = NASVAH | q = 0 | S = 0 | Stoichiometry = C22H32FeN6S2 | MND = 4
Fe        4.72674315179073    3.33982142633461    4.37175658151614
S         4.59565473217501    4.61481316804054    6.07656809144548
S         5.63051205201288    2.92824837990327    2.48052933008755
N         5.32691333440762    1.30272878512156    4.84714591434730
N         4.63034584756086    1.21829494440076    7.05843758418555
N         6.91222848823152    1.26936689980024    6.58882568597430
N         2.58794492209939    3.71940197489885    4.20261844942891
N         2.13871146644940    2.51803615024936    2.27037262856585
N         2.08488044552719    4.84709834955424    2.19831973218005
C         5.62228478457709    1.27350317718841    6.12373572890971
C         3.27690467624722    1.05750199535861    6.57613821344777
H         2.90317298406022    1.98249611416882    6.11948652830129
H         2.64136317611267    0.78118850013337    7.41593407058998
H         3.25644219859732    0.26823710392712    5.82803292541319
C         4.72646360023460    1.98381834035101    8.28459075663035
H         5.73302455451119    2.36827673776430    8.41247497751958
H         4.46077896427715    1.35755701037845    9.13940145788254
H         4.04392982983512    2.83630297940031    8.24338602003980
C         7.34263713163653    0.44892690811642    7.69300295602226
H         6.48897423402506   -0.06078658882605    8.13096428995566
H         7.83691992801505    1.05107412836922    8.46107185090000
H         8.05680898300693   -0.30321756698297    7.33787177950738
C         7.96257501675679    1.87176842943962    5.80811856424051
H         8.50173654498876    1.14557098210651    5.18924285378120
H         8.67038729592809    2.34896436544662    6.48911093880540
H         7.53117258682957    2.64022550818987    5.16197546321955
C         6.14508378862617    0.69470083934533    3.90221220524268
C         6.67696462090279   -0.58084871206258    4.08638299228259
H         6.49741480988990   -1.09369760729022    5.02200590380178
C         7.41322752648679   -1.18146319721178    3.08313912003955
H         7.82456666920502   -2.16818870488487    3.24009458488586
C         7.62460747086766   -0.52478045694464    1.87849967725367
H         8.20164331776848   -0.99889116519376    1.09840533939703
C         7.09212933333929    0.73331203065987    1.67265501104975
H         7.24481451631425    1.25645767862529    0.74037070860775
C         6.35297533101339    1.34659053267487    2.67504624223136
C         2.28792450018351    3.70435021544910    2.92658491511254
C         2.64406984391879    2.34738813671446    0.92339481007570
H         2.92527386152837    3.30615930147824    0.50027869832042
H         1.88539026940604    1.87567966071052    0.29443111260410
H         3.53441701438757    1.71393404461573    0.93970476858739
C         2.18704360564856    1.31269379550721    3.06736421312372
H         3.21160926220119    1.08843404247207    3.38872010152467
H         1.80169691911447    0.48775550649685    2.47013891937738
H         1.56689728962818    1.44445396031464    3.95114025426219
C         1.04934396997153    4.97003505400394    1.20338875361535
H         0.53330532775581    4.02119436943617    1.08616173915134
H         1.46334776270040    5.27785630334301    0.23857520129189
H         0.32346644757386    5.72795791989645    1.51987617836333
C         2.73467550522253    6.07387467146659    2.58338612118112
H         2.09541028727750    6.71724666673558    3.19846238795948
H         3.01543557435886    6.61667469757365    1.67845463682074
H         3.64382381703314    5.83654517137503    3.14132956595803
C         2.10231306565292    4.70904481011734    5.04845966994758
C         0.77672449156314    5.13996788200452    5.00995872018378
H         0.11507668124037    4.73377625219206    4.25640634728638
C         0.31631429402318    6.06486803250516    5.92741995525148
H        -0.71144746318974    6.39535851793746    5.88267358427644
C         1.16557766888004    6.56845126078074    6.90312501347168
H         0.80031681173696    7.29200633527623    7.61680501676280
C         2.47771629538960    6.14045451083225    6.96690491653892
H         3.15050606771306    6.51987514178138    7.72158649301089
C         2.95103251480472    5.21425429837510    6.04774274820533

