65
CSD_code = NASVIM | q = 0 | S = 0 | Stoichiometry = C32H28NiP2S2 | MND = 4
Ni        7.20007752178859    3.11068603088070    4.90297320167784
S         8.81176584499922    1.86982899255556    4.16055820657322
S         6.18438873903367    3.01183238760826    2.99336979109258
P         5.45577717992405    3.90375250581729    5.91569198719286
P         8.33028650023492    3.71175405324237    6.65309829272849
C         8.41039615141454    1.54010695859489    2.48596044526933
C         9.26092923228150    0.79237571913113    1.68255214554715
C         8.89794008975600    0.51369475824890    0.37896109623146
C         7.69077176871351    0.97685400560023   -0.12703788654344
C         6.84391781998269    1.72734225259948    0.66568234108642
C         7.20716097539730    2.01687585669363    1.97414392488562
C         5.98384176127083    4.90980301581036    7.38173411020896
C         7.17391265844474    4.20142743709799    8.01831465204823
C         4.81712741899555    2.40985500342207    6.73818592913539
C         3.71062440369054    2.43433023448231    7.58028187147599
C         3.29477365775505    1.26800534201070    8.19546521176691
C         3.97545856834328    0.08021739802173    7.97288695672625
C         5.07244945723167    0.05060450158458    7.12691748307455
C         5.49071212546328    1.21417583458640    6.50809191645942
C         3.94180122617515    4.69112879549322    5.31245353711466
C         3.63147617070416    6.02766233194453    5.53469932514645
C         2.47236774742152    6.56227298507840    5.00006059761238
C         1.62970465028446    5.77597227833474    4.23229517296257
C         1.94858336318643    4.44890871917968    3.98949484578239
C         3.10210629636742    3.90831691325488    4.52232187711225
C         8.94537693845589    5.34231664029618    6.12542677208457
C         9.71498430999647    6.15502561766459    6.95078480476587
C        10.12675536715009    7.39441093141036    6.49675659629738
C         9.77531351830754    7.82483854743781    5.22599848848004
C         9.01573800205732    7.01392295399819    4.39813372541504
C         8.60420877480285    5.77253602074460    4.84683303668661
C         9.77358527089100    2.99882264967900    7.48029758620671
C         9.72991741847392    2.43522366284621    8.75011839475821
C        10.87205255150275    1.87125215919408    9.29141536072044
C        12.05210643255159    1.85065105928960    8.56726697615357
C        12.09234088509710    2.39042050199475    7.29086431083415
C        10.95792454847766    2.95862887005026    6.74632404248134
H        10.19375945980141    0.43489397553462    2.09305702619439
H         9.55755978641340   -0.07019758224873   -0.24631635998929
H         7.41080805284500    0.75383116891926   -1.14629559744936
H         5.90431172951253    2.10024267601493    0.28550349256046
H         5.15479353765678    5.03013398705954    8.08483274142990
H         6.29134870026421    5.89614584350513    7.01922628365257
H         7.68728780105832    4.83573347014864    8.74652493349392
H         6.83483897232103    3.28715294105898    8.51598992380771
H         3.17618110564860    3.36110374482369    7.74125614740797
H         2.43516660487752    1.28225091705067    8.84979166808806
H         3.64349949609832   -0.82656724666258    8.45673884067088
H         5.59612733339896   -0.87658176039500    6.94773699548623
H         6.35005331119965    1.20530458179629    5.81970813488078
H         4.28918871814340    6.65176673079464    6.12227400372206
H         2.22839028405536    7.59933104641512    5.18014856811621
H         0.72807615695961    6.20025913520941    3.81587630025639
H         1.29870902986779    3.83863111210290    3.38016783352530
H         3.37101966779397    2.87874108665712    4.32845056176124
H         9.99613166325475    5.81005363503035    7.93690765919767
H        10.72664810025481    8.02808346949871    7.13382795072837
H        10.10183810647858    8.79411188696589    4.87890713672298
H         8.74995274416208    7.34645479629800    3.40575878844612
H         8.01577757827601    5.10784259877254    4.19537459109299
H         8.81072654227680    2.43524515873080    9.31775620378433
H        10.83860489103097    1.44114914956491   10.28211232025308
H        12.93909649231539    1.40670089532749    8.99447039073625
H        13.00846514616419    2.36359100860735    6.71971857616184
H        10.97088364123427    3.37005764749241    5.74611775801329

