153
CSD_code = NASWAH | q = 0 | S = 0 | Stoichiometry = C76H56FeN18S2 | MND = 6
Fe        7.20569719993546    6.51516234901350    9.31229727956452
S         6.67995858705547    2.82490937109248    6.58375495370189
N        10.27645858087377    3.91111259036623    6.98835056622833
N         9.67964746817558    3.16367354442110    4.82698031484376
N         9.31155980019634    5.41289168340482    5.45399187898704
N         9.70376694777498    6.05485915289972    7.62782814503729
N        10.70836573143197    1.75564164697952    6.33003442364195
N         8.06666928162075    7.70600098523492    8.02792597361115
N         8.75220092564556    4.66989680961741    3.35578996445511
N         9.00558402099962    5.99674492441759    9.87282535364993
C         9.25972422334475    4.39838100714287    4.58271167066055
C         9.77656388067545    5.08295933085580    6.64533061769747
N         7.15752126211742    5.11303051687649    8.04381684390259
C        11.26137341259770    0.52961411660184    8.34255189239366
H        10.43562790377764   -0.13607009929162    8.13963563229520
C        10.19791468658664    2.97529283774267    6.03350210220617
C        11.16940326454774    5.14765669774869    9.30940502400212
H        11.88504122928402    4.92645628558954    8.53836888327977
C        11.43065805505251    4.86490769498946   10.63696016820847
H        12.36192551437912    4.40239654579636   10.92370160841658
C         9.94862623419443    5.71926033096136    8.96646249152779
C         9.11832509270738    7.29206369420421    7.31550244597344
C        11.48617021957451   -0.22960915540735    5.19403979110489
H        12.48390924411914   -0.01803590734748    5.55146898875629
C         9.68409461561801    8.05630622475541    6.30076826338770
H        10.52746826143487    7.66799269737601    5.75709098507107
C        12.05817024318176    0.34606959256677    9.45715682693781
H        11.85213863542554   -0.47114832675256   10.13262300561998
C         7.59044048154767    8.93091393778732    7.77661873727592
H         6.77999231350346    9.25739456005180    8.41123327099140
C        13.37807141479899    2.24645357199509    8.83662459483790
H        14.21266064918663    2.90811772131200    9.01993760891552
C         6.94719983237203    4.13864062515880    7.42888132708076
C        11.51737915156900    1.58254912892569    7.47071753214933
C         8.56173375174846    6.00234215571186    2.94189848658267
C         9.29586423601860    5.78203398933813   11.16051497010856
H         8.53633219847820    6.08547841572769   11.86597722434270
C         9.15427673579597    0.35281724352836    5.08156002209131
H         8.34478437799119    1.00190830546145    5.36884443193819
C        10.44167500870583    0.62836126805517    5.52273492440874
C         7.34911156011375    6.38099072727726    2.37535349919631
H         6.56163674092832    5.64906095739119    2.27257803820786
C        13.11343093642522    1.20630834389782    9.71183255968925
H        13.73272516690301    1.06087981170582   10.58452405122043
C         8.08949775718247    9.75146014625835    6.78700032259160
H         7.65735103785561   10.72603774807192    6.62755733359397
C        11.24320616569473   -1.34415370484002    4.41316834117949
H        12.05820588407123   -2.00568452928892    4.15791136709166
C        10.48032766695132    5.21734211670071   11.58612054838473
H        10.65216168565811    5.05589227880633   12.63804532370202
C         9.38765715821381    8.23663400108483    2.63992576215925
H        10.19096511171665    8.95422949484999    2.72492027815739
C         8.36108170039836    3.63379883824186    2.47891215117640
C        12.58983787440660    2.43243892729905    7.71625864729109
H        12.80573376324682    3.22586169243613    7.01683066928339
C         8.92293181270442   -0.75991944558454    4.29514138866150
H         7.92040073128984   -0.97296910942036    3.95666984059849
C         8.73629047618276    3.70118615730456    1.14149849136935
H         9.32917654901564    4.53561517869604    0.79493321565726
C         9.96319744494611   -1.60847493650787    3.95557432210817
H         9.77719790262736   -2.47739435917924    3.34185714687797
C         9.14987916407507    9.29806328476676    6.01407090766901
H         9.56294465663401    9.90559339354128    5.22488360223865
C         7.16033450789191    7.68390006948452    1.95394876162863
H         6.21486196103220    7.97307245443161    1.51902339118863
C         8.17517302455489    8.61669352679414    2.08925601396486
H         8.02425275115553    9.63350778496737    1.75850340659982
C         7.20637479101759    1.57931125113759    2.04707989973845
H         6.59570068360598    0.76148174710770    2.39860329916715
C         9.58509206052901    6.93547203593554    3.06179677425555
H        10.53421759648838    6.62781412618398    3.47234458664438
C         7.58282282732574    2.57541010862940    2.92813559309116
H         7.26597375693213    2.54901136892658    3.95739521700728
C         8.34996679855477    2.70288823341233    0.26662741312708
H         8.64663002631030    2.75700587075624   -0.77068575431520
C         7.59045562844517    1.63645593542576    0.71792924675693
H         7.29314089960708    0.85650690013066    0.03267290111631
S         7.73443856306304   10.20142712500158   12.04640280327451
N         4.13427982853476    9.11894166482193   11.63823144477860
N         4.73232314410227    9.86531525434600   13.79961286968681
N         5.10158404490236    7.61678602973085   13.17074611464808
N         4.70768687874194    6.97592112134448   10.99694598718121
N         3.70152575021593   11.27375262453799   12.29853277742589
N         6.34495210856163    5.32482029970170   10.59664570057849
N         5.66262008715386    8.35895185059839   15.26880289132388
N         5.40563433278620    7.03425180231037    8.75201656887138
C         5.15357634292949    8.63077966220153   14.04265616927152
C         4.63520541957643    7.94718867590569   11.98007896526748
N         7.25366098667282    7.91761369227024   10.58029605941381
C         3.14343951235610   12.50234662003518   10.28902198378936
H         3.96841166632575   13.16904619970570   10.49176387257424
C         4.21293169135365   10.05411474890777   12.59367563770980
C         3.24240115821248    7.88462907759497    9.31573142977898
H         2.52701131479778    8.10638832939500   10.08682527458982
C         2.98125611060933    8.16767831612235    7.98821792942196
H         2.05032704616275    8.63097618684106    7.70162478949518
C         4.46283194860416    7.31214597450103    9.65851403992399
C         5.29280147747712    5.73833754535910   11.30860958729646
C         2.92604253012813   13.25743014614960   13.43903539415624
H         1.92720282852487   13.04528054685642   13.08503968619197
C         4.72597236591717    4.97333683116091   12.32214859583249
H         3.88214662160979    5.36140250312898   12.86533189185225
C         2.34463505651258   12.68650741023310    9.17596387784998
H         2.54831564956230   13.50522159101189    8.50159662968377
C         6.82086459996043    4.09968369007526   10.84756349678532
H         7.63184656011019    3.77352101697777   10.21347523971675
C         1.02879710769485   10.78292106529679    9.79524034846823
H         0.19502081141359   10.12019801784913    9.61205532824092
C         7.46513327999909    8.89031663646652   11.19782548320320
C         2.89051513972042   11.44749617321683   11.15947569063355
C         5.85679129021242    7.02647694103613   15.68101169215523
C         5.11535309241382    7.24911844955278    7.46437917197719
H         5.87458826131561    6.94505550652443    6.75886071990995
C         5.25882164146629   12.67683299524323   13.54257208331698
H         6.06777321879359   12.02854226568535   13.25186669816383
C         3.97003995270446   12.40060322202263   13.10590363456101
C         7.07115930838713    6.65028739042735   16.24544827076073
H         7.85698026371989    7.38406217062653   16.34772254297663
C         1.29040660660450   11.82497437929407    8.92139030637988
H         0.66956347659096   11.97086435109222    8.04987993689804
C         6.32074632903645    3.27838138338876   11.83599521282141
H         6.75269882217490    2.30365575618442   11.99505777435551
C         3.17094686718162   14.37157774917447   14.21987267392110
H         2.35634803556330   15.03223183954282   14.47865043809202
C         3.93119651897921    7.81457294169705    7.03891188834183
H         3.75934166193838    7.97620838888662    5.98701647204690
C         5.03673999648940    4.78995682955350   15.98222418417891
H         4.23503648205402    4.07050574621344   15.89786080547688
C         6.05136146514830    9.39478462310033   16.14709994307032
C         1.81900224639201   10.59633271275369   10.91411164738060
H         1.60538627918524    9.80141841603862   11.61254397837512
C         5.49215641127088   13.78922954119390   14.32888552239123
H         6.49577487766176   14.00295950705962   14.66368913800819
C         5.67657166977403    9.32435865980562   17.48447960238461
H         5.08593244289582    8.48785071956703   17.82987554173519
C         4.45242557336607   14.63664912341220   14.67289742907791
H         4.63996342755702   15.50529947275324   15.28652697939488
C         5.25961716483950    3.73118179592183   12.60822885937772
H         4.84564329313246    3.12293622299110   13.39637722152187
C         7.26372671693781    5.34747042621027   16.66541671784735
H         8.21052915602453    5.06021190159314   17.09871617344303
C         6.25092799132177    4.41235920057238   16.53081332815396
H         6.40476589832703    3.39563639754828   16.86050010117254
C         7.20075968189384   11.45159987813591   16.58190061716817
H         7.80921236715647   12.27157563480272   16.23155312699669
C         4.83554637733727    6.09098465269515   15.56170064656733
H         3.88512497609998    6.39666912257445   15.15271381017549
C         6.82674865306111   10.45589261553397   15.69936528819103
H         7.14331757022648   10.48470055000658   14.67011010843212
C         6.06041375518726   10.32232285618556   18.36081942974331
H         5.76405624094234   10.26584279267381   19.39809367629233
C         6.81705552093572   11.39142620609488   17.91102280476614
H         7.11243551933346   12.17111374264383   18.59741145923813

