43
CSD_code = NATBAN | q = 1 | S = 0 | Stoichiometry = C12H22CoN4O4(1+) | MND = 6
O         7.93952253930988    8.37974700444563   14.01543172275114
C         6.91826888256502    9.03251688395691   14.46470479564005
C         5.55693773079340    8.62895802550775   13.79641378962177
H         5.02511076784573    7.98736392898933   14.50970393363870
N         5.89621601549769    7.84628790284743   12.59656964909301
H         6.03950481929510    8.53146827679204   11.84535256569778
C         4.92545378841599    6.85800062440293   12.12200280798435
H         4.03915968842615    7.33204431777246   11.68737660343692
H         4.59747393361620    6.24518086646785   12.96488642710152
C         5.63825340990954    6.01816697134643   11.05848781088049
H         5.05316162551409    5.12769279155812   10.80906271007093
H         5.74424136489135    6.62579542386581   10.15735938258940
N         7.00262606715678    5.64577035769426   11.50691849776921
H         7.57272688182701    5.58588462027804   10.66453890107690
C         7.10055733424091    4.34673623033958   12.19460982563898
H         8.12668703701400    3.99003175866739   12.09513922407041
H         6.44121061678399    3.60376527765533   11.73200088147801
C         6.74319653702394    4.49788920448695   13.67648434195139
H         5.65790094055907    4.52504301067705   13.78728552467581
H         7.10817222873479    3.62772531656460   14.23140506941002
N         7.31059011419271    5.74687206879324   14.22279162531586
H         6.67689873713599    6.08531868571807   14.94517663120991
C         8.61867359291466    5.59154162405946   14.90280859934752
H         8.63713060281452    4.68389976523340   15.51408985818062
H         8.74349400917507    6.46046864001462   15.55201030740799
C         9.76500987688393    5.59395758359512   13.88667696044006
H        10.69986065024666    5.87764189561213   14.37781972857596
H         9.90187205789515    4.60592922726013   13.43326183772929
N         9.40004816359759    6.54167081734849   12.85798912665487
C        10.21601355989905    7.22306398448400   12.15118489840104
C         9.48295841582518    8.15199574880710   11.16548592359129
O         8.20481153775419    8.13010881850370   11.34758998687489
O         6.96081338865896    9.84284691308031   15.34891090424240
O        10.07081675130375    8.75692360924175   10.30989730843373
C         4.72524078486253    9.86446801059302   13.48948274354313
H         3.72702660453767    9.60145463039760   13.14666859013940
H         5.21681498229605   10.47666140520311   12.73614737324090
H         4.63928151055424   10.45924545675957   14.39538382802817
C        11.68856065961156    7.18110682835650   12.16202586397754
H        12.05540259736281    7.69387022376222   13.05321302009595
H        12.05832651236256    7.71427043780917   11.28754475203594
H        12.07240522542196    6.16235645387699   12.17684080654139
Co        7.63876745527276    7.06885837717456   12.75366486141623

