67
CSD_code = NATLAW | q = 0 | S = 0 | Stoichiometry = C27H36AuClN2 | MND = 2
Au       -0.25905114795834    5.30408000454783    3.05579307193668
Cl       -0.23276336252315    3.05982721578807    3.07230615192797
C        -0.27828071239389    7.29167872123517    3.04103657044201
N         0.40519014508319    8.10316515619394    2.21708528284279
N        -0.97213116495496    8.10578472412246    3.85357616764872
C         0.14415074603246    9.41664107858229    2.50791870922454
H         0.59275753111127   10.22082050133553    1.96252668318006
C        -0.72762412384372    9.41833247425622    3.54433744743176
H        -1.18648488485542   10.22425363298355    4.07850375518079
C         1.26281577683831    7.63870414352724    1.18285373865373
C         0.74325919229079    7.49366434797578   -0.10497856565555
C         1.58946699858479    7.01937847985813   -1.09756212308908
H         1.21457752949054    6.88248730192977   -2.09939314244190
C         2.90589003573882    6.70848428240776   -0.81544114825432
H         3.54981589353720    6.33868951727121   -1.59920076832211
C         3.39863765586624    6.85669870588468    0.46633495502594
H         4.42518927911854    6.59899336498169    0.67408664937631
C         2.58571920678834    7.32004123040986    1.49216567784165
C         3.12687500287539    7.45170351058815    2.89586636989119
H         2.34108745834894    7.84266744192064    3.55015983487674
C         3.53744842520694    6.07965585121713    3.43430604728386
H         2.69450030818234    5.39154151653408    3.39580288220301
H         3.86591067667262    6.16659672180672    4.46744511361465
H         4.35006159327440    5.65853008579726    2.84875008303443
C         4.30105234578913    8.43270615988991    2.93738614326499
H         4.63921823801214    8.56445888185416    3.96266119694428
H         4.00385280444413    9.40314786934750    2.54412358890152
H         5.13650298709511    8.06569748218258    2.34753647144758
C        -0.70783093856136    7.78833479843850   -0.40431055475810
H        -1.15274279695915    8.31063887040317    0.44915189902818
C        -0.86606148428559    8.69322638844817   -1.62754537822058
H        -0.55154471680068    8.18724120818185   -2.53580641289360
H        -0.27272443322171    9.59840121535583   -1.51398086398629
H        -1.90964721393574    8.97697386786973   -1.74401884059284
C        -1.46266769940432    6.47000590411973   -0.59490927289300
H        -2.51994764211190    6.66296379176754   -0.76229794442024
H        -1.35807542666813    5.84164135778384    0.28850790937268
H        -1.06997830379389    5.92452610561724   -1.44905772474137
C        -1.82776213853708    7.64637296445326    4.89170366251895
C        -3.14498937053240    7.30513041553230    4.58196301087125
C        -3.95688292955149    6.84948052614533    5.61204999250732
H        -4.97895116557108    6.57476348986088    5.40403799743001
C        -3.46883191821810    6.73082142810874    6.89866496050961
H        -4.11207201779215    6.36739886459618    7.68595136076617
C        -2.15780126783478    7.06323593983321    7.18122052820617
H        -1.78620567415746    6.94909579737039    8.18710048071975
C        -1.31272948321849    7.53035496808625    6.18425765763141
C         0.13319781270020    7.84768690198793    6.48535570987799
H         0.57537546010956    8.36318229541707    5.62633305522305
C         0.27467467959853    8.77158104871927    7.69640874431946
H        -0.33267180995379    9.66561223384398    7.56948107013403
H         1.31338313491008    9.07335569292182    7.81104032461285
H        -0.03359858608896    8.27301788797098    8.61090252342251
C         0.90321549342830    6.54157645295018    6.69832304566022
H         0.50912479893591    6.00079212614699    7.55484188653829
H         1.95621733347912    6.75015866047979    6.87374349955090
H         0.81544066795522    5.90176862979635    5.82130443188231
C        -3.68138785004814    7.40367487845542    3.17370017098579
H        -2.89943495184986    7.79711962715107    2.51633891103652
C        -4.06504658092909    6.01529571337191    2.65755670512930
H        -4.87377585955311    5.59085943200048    3.24612837642943
H        -3.21063926509897    5.34262705626548    2.71312091684773
H        -4.38886676034867    6.07801797644677    1.62120972761857
C        -4.87255903440131    8.36266418141435    3.10940210388142
H        -5.70389053798517    7.99192437706139    3.70272693765094
H        -5.20878119980979    8.46906833164256    2.08054516091739
H        -4.59437475775805    9.34547818957078    3.48546738682778

