41
CSD_code = NATREG | q = 0 | S = 0 | Stoichiometry = C17H16N3O3ReS | MND = 6
Re        2.83835379986403    3.82569898690160    1.85206899337835
S         2.42853165571121    5.99063835860667    0.67988335497200
O         5.66195581965065    4.00248621211158    0.62043873208342
O         1.72241374276713    2.23692665907233   -0.55049422064613
O         3.22401588375606    1.35109789382486    3.67824350857017
N         0.94511124277606    4.36528863669467    2.69245726977141
N         3.43287417232048    5.26194731421767    3.60909273836508
N         5.16078557282762    6.82363804570161    5.63014631689967
C         4.62406116947559    3.84168999656472    1.07688404286186
C         2.15968367632873    2.78271801126512    0.35773226287467
C         3.07799326825569    2.26326339661843    2.98688863610041
C        -0.22082867390581    4.21461428977464    2.05884006722252
C        -1.39585419445608    4.79358363091698    2.49244834654308
C        -1.37755309807149    5.57309052938177    3.64165484345497
C        -0.17427348851486    5.73126654628869    4.30381760226856
C         0.96547804008565    5.11531292100969    3.80271894234070
C         2.28225644688609    5.21249665816465    4.52752135977449
C         4.65052944246331    4.83380210387237    4.33774660329983
C         4.86416579335866    5.52977257865635    5.66125031638847
C         4.75194412788619    4.82858727445735    6.85883420565650
C         4.96101832231351    5.50288378764095    8.05065132947386
C         5.26838811631440    6.85352878603074    8.01017963165415
C         5.35491566777640    7.46403182528159    6.76857364595886
C         3.63246510808146    6.63040578491265    3.09370347360318
C         2.53854808128580    7.07633271542748    2.13914680651230
H        -0.20267491025582    3.60896424884496    1.16255078744758
H        -2.30725148181649    4.63805694542364    1.93874867313598
H        -2.27494965504164    6.04594928782241    4.00907352181139
H        -0.10549774868314    6.33013651917338    5.19968465815661
H         2.38048525629923    4.30465889644964    5.13901183417499
H         2.27832271038988    6.07869383336362    5.20465380040412
H         4.58770397066769    3.75586135329206    4.51231689604160
H         5.51082034385451    5.02305061318639    3.69032338658415
H         4.51603004194254    3.77481418610644    6.85532893632115
H         4.88503475861125    4.98235032120885    8.99411865563929
H         5.43907302481046    7.41649690420609    8.91397663862696
H         5.59229903326986    8.51531320499705    6.67265891923362
H         4.58065617507730    6.63996513159378    2.54771476795172
H         3.71235019715737    7.33911701237275    3.92933031969438
H         2.77433515108080    8.07268482371773    1.76092963429278
H         1.56148343739940    7.12468377484451    2.63214976110169

