77
CSD_code = NATXIQ | q = 0 | S = 0 | Stoichiometry = C26H46O2P2Pd | MND = 4
Pd       15.24356108043219    6.17704488604536    2.39490283485973
P        13.20034869122638    5.80203765559454    3.29279037279609
P        17.42552278281515    6.60732156567299    2.00016053537702
O        14.49580274988947    6.72917563245205    0.35048399540455
O        15.04204649478127    4.59796021632094    0.29844369267743
C        15.86120243938706    5.94411957738964    4.30268048607438
C        15.00987423878731    5.43544603163474    5.28699489648236
C        15.45358010097079    5.26299346926774    6.59284035034821
H        14.77716255903792    4.86279023798146    7.33648979863764
C        16.74669862529099    5.59704246580282    6.94644218014431
H        17.09057503824255    5.45168801298770    7.95990820663847
C        17.58955009543105    6.13662977507635    5.99334048343751
H        18.59604834292476    6.42641348674234    6.26460437255969
C        17.15147081627724    6.32156533802811    4.68806289577077
C        13.59413425106220    5.06497791273018    4.93776101135522
H        12.89221728195152    5.38043623428806    5.71580992155206
H        13.52653133800945    3.97624167777316    4.84940314130711
C        18.05187102665401    7.00188414666211    3.69376513206604
H        19.09879281257696    6.72877327926669    3.83547501726926
H        17.97100390638619    8.08253420750281    3.84870348587542
C        14.15264761642451    5.56809709178536   -1.70249554964392
H        13.53600925504166    6.43042003387321   -1.94153817750970
H        13.60656295269923    4.64654336962222   -1.88605554241450
H        15.03817674241390    5.57436042521996   -2.33585873815804
C        14.59364227809036    5.62174588181618   -0.24193964647201
C        12.44565201220573    7.48974948436263    3.69225531264074
C        11.12708616338925    7.45987005298802    4.45823734248141
H        10.31362135157223    7.10708953252180    3.82906066697980
H        10.87600752845745    8.46795458525185    4.78770401480390
H        11.18958721381571    6.82620054278751    5.34075568257671
C        12.29008754677468    8.25182216231178    2.37320434840742
H        13.18705887144120    8.12486066341893    1.76004494179012
H        12.15128253839224    9.31498568250423    2.56813167467113
H        11.43481891008203    7.90237270868052    1.80174034737485
C        13.51376122806122    8.21738614511173    4.51748616629314
H        14.46321465967952    8.23328277089536    3.96526374726707
H        13.68088951990321    7.73859273405952    5.48045428975813
H        13.20491850274962    9.24659934772343    4.69893248688731
C        11.95153986609393    4.57563722153330    2.58872944860810
C        10.85509523577380    4.14631392895173    3.56292849572165
H        10.18546666612136    4.96505477735530    3.80809343666240
H        11.26921823603531    3.75018636014083    4.48695900777600
H        10.26181086661130    3.35807999091431    3.09964984109220
C        12.80380733316263    3.35743130793485    2.21012819305684
H        13.65187286879271    3.65677694455021    1.58956333481844
H        12.20599551173042    2.64302483061918    1.64546975850404
H        13.18904036976513    2.84513169664211    3.09071995508803
C        11.33143573723329    5.16055675647357    1.32030002501395
H        12.10044618034297    5.61607805672878    0.69866076460604
H        10.57958356623048    5.91037158846536    1.55782167604233
H        10.84775356244083    4.37395858866478    0.74191778840433
C        17.80338582325366    8.18825237020095    1.03605051153753
C        17.46245586073359    8.00292513978063   -0.44205333222068
H        18.18544053512975    7.37113367353745   -0.94931697299500
H        17.45470573288710    8.97075837254488   -0.94335023892744
H        16.47250912548190    7.56204032583266   -0.54175085690825
C        16.79793730038972    9.19349444611478    1.61760355876065
H        17.05063598940510    9.48904449102149    2.63494105670220
H        15.79275676846606    8.74933475250275    1.61464275603001
H        16.77098248762859   10.09466244345758    1.00660418853297
C        19.23466732726453    8.69530210684432    1.18917810749632
H        19.52920953564261    8.76918910203599    2.23366118141751
H        19.31860999264598    9.68645275119208    0.74373499446840
H        19.93564003210587    8.04101178613751    0.67556032417358
C        18.43491196662140    5.08053764852477    1.52925751155320
C        18.26527893776708    4.76808488896428    0.04344363765869
H        17.21371558276074    4.81840241043208   -0.23148542075497
H        18.61441576225579    3.75585149380694   -0.15873850137449
H        18.84092599589972    5.44921859259821   -0.57855305418226
C        17.75401529162267    3.96678492875811    2.33623451301085
H        17.85206133581548    4.13799098717121    3.40900321148768
H        18.20574050647557    3.00388688594871    2.10073776942954
H        16.68656477825335    3.92010901022927    2.07667659026406
C        19.92298938620893    5.14912221992008    1.87181739904845
H        20.09268482710780    5.13573778039547    2.94575855078669
H        20.39315210396441    6.03539218725701    1.45234797772823
H        20.42152145054985    4.27536813167657    1.45320663347870

