100
CSD_code = NATXAK | q = 1 | S = 0 | Stoichiometry = C49H43N2O3P2Ru(1+) | MND = 6
Ru        8.28874307101646    5.59793621458901   11.07324322513872
P         6.06469119237422    5.88270200858169   11.70449707248116
P        10.52762702315481    5.36665815750274   10.47626118861203
O         7.39503920899427    5.12695778127320    8.08939091938723
O         9.07178613393419    5.45034360429604   14.06103253593276
O         9.05067509044778    7.90627233136280   12.81576124261471
N         8.48617301520999    4.02909665056865   12.44552435470621
N         7.78322450600100    3.90403537665781    9.92494181569388
C         8.75946848048382    7.00448719513849   12.16784833911705
C         8.95994467787614    3.09947107713583   14.60026925774901
H         9.24965231868091    3.25092161815398   15.62521957693337
C         4.70148713085741    5.38413011556231   10.59538230914871
C        11.38040061278610    4.36577950095928   11.73390796722022
C        13.76097110970609    7.82619537899595   10.16827258025843
H        14.83491975322599    7.71634636518923   10.15460982128465
C        10.99795308650643    4.63926351354782    8.86817766112488
C         5.45051480960178    7.56068860932470   12.05353933649487
C        11.96035568329819    3.65539911336147    8.67642304312068
H        12.47010059506554    3.20787522195877    9.51709806853430
C         5.55300549208320    3.61911783830574   13.25849882908930
H         5.46115491814255    3.09357612042794   12.31506903738420
C         8.32363869882068    1.66932599519742   12.80280048293761
H         8.11260295419763    0.68610931937090   12.42067399971126
C         7.20205633647912    1.53082042916384    8.59827970999550
H         6.97880154951101    0.61062148216244    8.08239080834438
C        11.81189287972956    2.22432949069001   12.74666613259826
H        11.74185731246660    1.14688891257764   12.71849937450102
C         5.93424273393169    5.65444206907211   14.48085292408046
H         6.13726032247050    6.71695815819320   14.48763487513382
C         5.76625433504176    4.99660649700347   13.26555239825736
C         7.56033740941735    1.51889530950146    9.93328635991740
H         7.61761252782977    0.58507228297426   10.46418549234027
C         4.24769193112627    7.72026655828363   12.73970207020830
H         3.71594705108330    6.85148001223457   13.10411674630070
C        10.74047075653580    4.84819184357368    6.48373506434784
H        10.28908851625857    5.33089914017106    5.62908999809037
C        12.95851174724860    6.71273987265558   10.32452122495323
H        13.40301404297735    5.73210325824690   10.43002742535031
C         5.46137570264004    2.92178080394676   14.44911208333813
H         5.28429657361641    1.85639174308400   14.43596375983184
C         3.59204502204600    4.63411396586266   10.96635361305919
H         3.49905093351906    4.24098832934609   11.96821371916363
C         4.41822903566060   10.09849312752420   12.47960153944295
H         4.01904913935191   11.08635004902860   12.65199910701669
C         7.43067225632461    3.91002570841787    8.63078983892454
C        11.57188706628418    6.85270350693076   10.35158421874042
C        11.00079135558157    8.10804073532538   10.18524202859949
H         9.92227882602635    8.20267148764379   10.17762151100416
C        11.81080187788662    9.21967911005638   10.02711378254172
H        11.36542993528939   10.19537695332622    9.90484356265546
C         5.83897205213370    4.95285846314289   15.66927763366953
H         5.94949304249907    5.47264067496477   16.60993108500540
C         8.22888128494029    2.79227328821302   11.98327656000287
C         4.76333078227685    5.93577416256744    9.31729581147759
H         5.61485571285569    6.55339490573693    9.06217382484926
C         8.69302389346857    1.82890708195730   14.12367390913493
H         8.77323976198773    0.97604228225964   14.77821955264744
C         8.84401279965971    4.17542759083370   13.72636539610601
C         3.74963296486210    5.70483884088298    8.40763853620166
H         3.79555075902549    6.14342155591829    7.42141921536221
C         6.11579163645975    8.67483600897701   11.55770044616911
H         7.03312520630510    8.53882079257570   10.99895978612944
C         7.13248026918353    2.73835503221303    7.93264944662715
H         6.85417827367052    2.77161592352547    6.89397608444650
C         5.60054547959658    9.94113976026427   11.77633934802199
H         6.12249286218861   10.80611339738782   11.39596285833522
C        13.18847930966825    9.08107242449985   10.02403687280355
H        13.81887237567702    9.94874258859459    9.90288525759954
C         2.58301562739199    4.39955015511497   10.04703721208970
H         1.72471877942668    3.81228247518064   10.33753421294869
C        11.67295251090285    3.83928892739974    6.29654465316892
H        11.93503386953515    3.52236086105529    5.29857231996783
C        11.97500040211703    4.99159478333367   12.82627651677543
H        12.01954636213825    6.07194584670524   12.86149352487421
C         3.74036403609727    8.98667895326662   12.95667033517926
H         2.81251967403163    9.10830747025073   13.49513384922425
C         5.59723517559684    3.58827170022212   15.65623369742961
H         5.51887975190348    3.04334500852851   16.58466277630167
C        10.40596770887510    5.24776102788296    7.76311244274391
H         9.69170906706401    6.04333598762604    7.93281312594435
C        11.28132075161642    2.97563646982949   11.71394348242896
H        10.78410656892181    2.48284815117629   10.88671027127896
C         7.84508714048702    2.72243634970459   10.57330319894802
C         9.46610166201080    5.77860494684274   15.37841395768442
H         9.58676357129059    6.86050499375190   15.37768086564216
H         8.69704514128355    5.49606189575167   16.10202534798804
H        10.41683500081498    5.30406682500411   15.63499479733218
C        12.28457081859939    3.25312081895088    7.39136646971810
H        13.02930006382839    2.48480912557566    7.24645582032321
C         2.66186887858983    4.92443683959492    8.76852197109309
H         1.86897757252378    4.73949602228279    8.05984006633828
C         7.03370787763521    5.27899215624949    6.72962096366354
H         7.07982882602115    6.34910961251680    6.53657351927926
H         7.73658461042186    4.76121935810098    6.07178562359291
H         6.01721707660113    4.92084309825196    6.54679559651697
C        12.43086669148495    2.85219363650139   13.81544258219120
H        12.84982857189157    2.26356897648010   14.61735747864598
C        12.50622061983866    4.23552299210119   13.85558597874332
H        12.98457882307100    4.72626552383792   14.69076862274669
H         8.09141156319513    6.59244429217075    9.93982506061863

