65
CSD_code = NAVCAR | q = 1 | S = 0 | Stoichiometry = C29H30Cl2IrN2O(1+) | MND = 8
Ir        6.84406936459845    8.53120700986725   10.64809495453757
C         6.95922364917888    9.31807009881188    8.76964754902334
C         8.06846801390623    8.85798095740733    8.01851684989074
C         8.24318738804453    9.27603970798462    6.69181831932411
C         7.33962300019677   10.14301320173634    6.10802907276581
H         7.46749344511776   10.46270868145740    5.08666325503985
C         6.26453344394990   10.60350597034253    6.85907237423253
C         6.07696439437291   10.20086987893502    8.17896289095892
H         5.23231963271229   10.59433151208837    8.72179498370342
C         8.94839714220668    7.98847137913563    8.72851244887042
H         9.83380092595445    7.57698984620117    8.25621377509211
C         9.43741825001449    6.86974812183391   10.73057198699670
C         9.98587951208442    5.70868576680836   10.18498712451598
H         9.79116428238166    5.45920702870070    9.15261610302142
C        10.74222893140571    4.84968634571838   10.95721137355393
H        11.13765220106345    3.95477724722443   10.50485350937082
C        10.98428063691926    5.13891964592521   12.30105707035431
C        10.42372740620978    6.29985474046466   12.85220319984788
H        10.61246347647348    6.50915612335297   13.89263599042164
C         9.65525937772724    7.14065415042645   12.08589502748474
H         9.22345120956781    8.02844160479385   12.52384701612020
C        12.32754915880194    3.20688222044603   12.65802721667692
H        11.58695805531735    2.48087366786432   12.31051994677901
H        12.86789191289940    2.79145919752987   13.50619265179993
H        13.03277940258521    3.42866898518000   11.85238099077936
C         9.04513867892578   10.60769828915870   11.23636134742729
H         9.69148770494604    9.80919290602255   10.90277404665702
C         9.59232140050556   11.81282466878711   11.63645931328484
H        10.66200306083502   11.94424590034333   11.61732413884860
C         8.75330421348103   12.83352254468485   12.05501741066239
H         9.14957684703984   13.78451885151251   12.37352366108951
C         7.38824130149758   12.59514673142378   12.04331614397819
H         6.68751219617739   13.35549716816512   12.34852079514759
C         6.92325529012807   11.36165876441569   11.62679214090087
H         5.86220244199976   11.17009735808251   11.59419209747445
C         5.53611154107733    8.04643125571307   12.53573066126654
C         6.12860989924555    6.84914792453291   12.12175137269727
C         5.76214307322347    6.62882247418378   10.73319635149200
C         4.81508822040465    7.63555699241636   10.35850838409502
C         4.75407782844282    8.57890409144137   11.42778645250859
C         5.55405909024086    8.62183114505534   13.91325350455763
H         4.63968739038610    8.33973076043396   14.43738399066970
H         5.60559313843754    9.70970501970001   13.89424576068007
H         6.39883539168915    8.24680538105898   14.48585943372817
C         6.84115509839520    5.85942091454275   12.98073978957082
H         7.35474026126363    6.34093764722857   13.80900203457089
H         7.56861922288925    5.28677686751777   12.41114031360675
H         6.11428083833334    5.15983747098636   13.39684454401818
C         6.02227861923738    5.36491190449853    9.98010181600090
H         5.27983978895785    4.61605102088330   10.25952980939432
H         7.00708257391463    4.96320921023581   10.20962535283624
H         5.95243682019348    5.52696628511086    8.90715951922743
C         3.94733166179305    7.61845168940063    9.14509405275650
H         4.47040869848181    7.20682183500825    8.28600879662049
H         3.59761333541825    8.61464716423730    8.89152352148072
H         3.07584328262155    6.99270202681774    9.34293626391196
C         3.71143375926365    9.64591873821147   11.55710764051303
H         3.63855232992960   10.25168675839887   10.65553770316040
H         3.90274143858635   10.29593808647116   12.40748837293518
H         2.73927319521401    9.17609840208578   11.71414866383886
Cl        9.58742601332688    8.71596529447313    5.77551356258904
Cl        5.14692459003151   11.69314827299416    6.14198947122627
N         8.66356976341609    7.74759219006223    9.97060766361812
N         7.72844565949451   10.36727930130799   11.23586010184355
O        11.71057012686269    4.38189760216776   13.14081831796354

