31
CSD_code = NAVFAR | q = 0 | S = 0 | Stoichiometry = C15H8F4MoO3 | MND = 9
Mo        3.36252893259584    2.84917410108993    3.64213078223253
O         6.23859868542796    3.23471173777230    4.67108930391454
O         3.47663000755615    1.95335992486264    6.59441663868758
O         2.74019110208334    0.77116120377721    3.63360180683756
F         5.77201521810430    3.69862759932042    1.57433336463000
F         7.36809772602574    2.22004899236789   -0.05942518928987
F         7.13283158930549   -0.48753858928993   -0.12736553845583
F         5.23667804311729   -1.72582774864158    1.38124482102700
C         1.31699466148918    3.91764600172712    3.69628528786892
C         2.34539524216699    4.89165221307195    3.81996506997601
C         3.08646462513057    4.89344381305740    2.60381046419671
C         2.52042526396442    3.92326630767386    1.75008919096767
C         1.43373282140805    3.32312191027609    2.42411945839838
C         5.16298671261826    3.13019396384589    4.28197693836526
C         3.40224728304245    2.29559154724439    5.50203822997956
C         4.66901676609415    1.77806333316619    2.37119922824414
C         4.52768249751874    0.37094456196901    2.27357314021571
C         5.36768203068345   -0.39078519958301    1.44295555801871
C         6.32888189762749    0.22580766778627    0.67184119296158
C         6.45567258222699    1.62306161505081    0.71417649744995
C         5.63787516691226    2.35494799770436    1.55320633594645
C         3.39576799950893   -0.09680701629565    3.02190760560694
C         2.96043078487514   -1.52890179807572    3.06350320449053
H         0.49274158912922    3.77957365359755    4.38338340797063
H         2.40865844016829    5.64865256871714    4.59444584187068
H         3.83253804360784    5.62446287126535    2.32011820144703
H         2.77177697126310    3.77896646208388    0.70697379355637
H         0.72664470538125    2.62853254939742    1.98431597185916
H         2.79162006723088   -1.91031772430901    2.05862425868041
H         2.04850227288723   -1.61446389080064    3.64895370698844
H         3.74269027084895   -2.13577062983129    3.51681142535735

