31
CSD_code = NAVFEV | q = 0 | S = 0 | Stoichiometry = C15H8F4O3W | MND = 9
W         6.10662965066133    6.63781637734191    1.55783463540220
F         3.71643432292545    5.84630271348775    3.58835128975174
F         2.08182054607033    7.34292805571785    5.21898790571726
F         2.32549695549384   10.04902566056511    5.26574797726999
F         4.23513236716712   11.27710204127964    3.77466219956857
O         3.21514991862392    6.33871920222601    0.43252031303427
O         5.93112923514228    7.65825503699660   -1.39092260148604
O         6.78264345436239    8.75892936454967    1.57947070224225
C         8.05760172704682    6.15371879796100    2.74417223355421
C         8.14991198798933    5.53850944733460    1.47742286332194
C         7.10848043301322    4.57074845481626    1.37975697772687
C         6.38642069149313    4.58909909044133    2.61485424736859
C         6.97398542211074    5.57053563596177    3.44645162293077
C         4.28452966642805    6.39564017406305    0.85915002474388
C         6.03919251559421    7.25817681061501   -0.31689901617244
C         4.80421687884000    7.76872910030495    2.80987386259986
C         4.95574845688651    9.17729248409433    2.89709319624812
C         4.10605035435725    9.94172612203269    3.71536242599021
C         3.13616553779576    9.32802081396706    4.47964146164446
C         3.00397210727535    7.93001684864458    4.44929187730636
C         3.83080752688716    7.19534174229963    3.62242425649369
C         6.10692780124546    9.63480261477441    2.16492871423253
C         6.53779939414871   11.06664466045079    2.12084856778922
H         8.76934102697384    6.85805546015156    3.15802348022255
H         8.95282659436536    5.67620053039421    0.76607138571656
H         7.01991066682523    3.81023787995215    0.61182331036984
H         5.63242037036289    3.87405979409332    2.91636664297523
H         6.73572834958636    5.73788159556396    4.48861419846046
H         7.44186560362873   11.15691943743926    1.52459224800744
H         5.74818893006861   11.67529241789051    1.68387634519904
H         6.72077150663073   11.44197163458896    3.12600665177013

