53
CSD_code = NAVNAA | q = 0 | S = 0 | Stoichiometry = C12H28N6NiO6 | MND = 6
C        -1.59822260816351    5.17662107401949    8.05505790542293
H        -1.44602219200412    6.15457830728816    8.53916668264886
H        -2.21535415034325    5.31392919619495    7.16695199709297
C        -2.33629057099969    4.26777699476289    9.03196210907207
H        -3.28141773492293    4.72615724341175    9.32804913527341
H        -2.53401515601009    3.30268431232895    8.54686971022253
C        -0.34934445707035    3.49734642836362    9.89286583474638
H        -0.49093482279825    2.50162325192048    9.45414760554142
H         0.19541370007810    3.40095174522451   10.83349087541068
C         0.44412054735019    4.37296862133012    8.92393921962914
H         0.65047735400335    5.33834147698238    9.41514143777630
H         1.39170790776276    3.87833953101433    8.71176403427912
C         0.40591242146948    5.62306815237866    6.87594449722570
H         0.66251484704259    6.49456778569848    7.49948521007651
H        -0.27181013816665    5.95882943878890    6.08580482047815
C         1.67239690479251    5.07837946621620    6.22161489016289
H         2.18038137359965    5.90079317559716    5.69968389794705
H         2.35418661625975    4.68755703572116    6.97938523234974
C         0.99309132491275    0.07146074521843    4.13128785837863
H         0.83639291758165   -0.90489296120590    3.64523602086969
H         1.58176990067639   -0.07622039340417    5.03685527103728
C         1.77543748408004    0.96447292698189    3.17453813202049
H         1.97493797594333    1.92689211886161    3.66426494298213
H         2.72114189011883    0.48955070367546    2.90794451638569
C        -0.17330606704089    1.76267153440700    2.25199449774230
H        -0.68817128169458    1.86396889371282    1.29528549445875
H        -0.03050955879141    2.75728758297892    2.69218793328005
C        -1.00869670623000    0.90364553441618    3.20010115594537
H        -1.95453245501151    1.41341198924200    3.38171301196571
H        -1.21463779191676   -0.06146861821865    2.70824870298185
C        -1.05016991727228   -0.32879806264541    5.25944353632846
H        -1.31315635042057   -1.19746832958084    4.63482473329013
H        -0.39761770682082   -0.67515295370237    6.06606273896094
C        -2.31650944605848    0.24890844340888    5.88468882079041
H        -2.85277438827998   -0.55841267004614    6.40214577733879
H        -2.97500787636843    0.64987923933698    5.11169349712280
N         1.31049631801949    3.99395310165880    5.31302263014015
H         2.13651482798794    3.43517019839076    5.10673181395005
H         0.95518489839653    4.38419601943217    4.43923329345592
N        -0.29615871325749    4.60754564777453    7.67308576733672
N        -1.94607529772376    1.33059137597430    6.79287720010467
H        -1.59768418567940    0.93558721324311    7.66740181490860
H        -2.76571491161440    1.90022972335205    6.99558902476942
N        -0.30843455870373    0.66631827124367    4.47300999940572
N         0.87823203087312    1.75715783483723    6.96878648264472
N        -1.49503792185589    3.54724764403728    5.14821368529513
Ni       -0.30749166795495    2.65183814665733    6.05828375027298
O         2.02381317877809    1.66865919263453    6.54145572752142
O         0.52295743958002    1.19400456554059    8.00090496871191
O        -2.62600171897852    3.68254044603100    5.60240138746269
O        -1.15426184565425    4.06050550482997    4.08533434059716
O        -1.59701827752085    4.06813614770469   10.21067414697207
O         1.07479861602103    1.17237000597860    1.97385222921524

