49
CSD_code = NAVPIJ | q = 0 | S = 0 | Stoichiometry = C20H23ClNO2PPt | MND = 4
Pt        2.93035643928388    0.84221783670097    3.97518969855722
Cl        1.67324157782675   -1.02857765232071    3.71734564489026
P         2.14969278620625    1.47336007811824    1.91771865576068
O         4.06455941307733    2.49436593526156    4.23143161678137
O         7.20796125902094    4.25125972890151    8.27220586320445
N         3.51438682406453    0.20597203975065    5.74227900697644
H         3.14126894953688   -0.69329632233971    6.04156977317483
C         4.78806721013478    2.79978224728341    5.22832572702798
C         4.96007847631640    2.04400661930633    6.42145294950418
C         4.31242551278339    0.77311522060387    6.62781204145954
C         4.54997086736459    0.08764516632410    7.85890795271344
H         4.05773576510247   -0.86578002364774    7.99659553230344
C         5.35581623454134    0.59563741908525    8.83028877113124
H         5.51360770710389    0.05290416425275    9.75031993617091
C         5.98248919589544    1.82983211968923    8.63265777956305
H         6.62474842938975    2.25232708629436    9.38993902292460
C         5.79584622980385    2.53748242940559    7.46506934709533
C         6.50884637958297    3.82578923561509    7.36688652427499
C         6.33265433607539    4.57132639750841    6.11107622181135
C         6.99825292173481    5.78374868111356    5.94104612155120
H         7.62487815658519    6.13359620114449    6.74793222094708
C         6.85592957035007    6.50712777989260    4.77464471884202
H         7.37576874782140    7.44506497414869    4.64922684457169
C         6.03953060006235    6.02097693464426    3.76175589567649
H         5.92371611885914    6.58198732738059    2.84585704702553
C         5.37499472763872    4.82207136345715    3.92051243994016
H         4.73980896324580    4.43868444910575    3.13731937558399
C         5.50967358427778    4.07743707715643    5.09435018795629
C         0.31813978616661    1.62660645771451    1.88701455992041
H        -0.02401967202878    2.00806344568807    0.92233620587022
H        -0.07254068387101    0.61433876308218    2.01795633034929
C        -0.14610859539385    2.50916916273044    3.04007384184728
H        -1.22996087513827    2.49144343047975    3.13063291604743
H         0.17128326094090    3.54059798663350    2.90023745949633
H         0.28572326597267    2.13878726872577    3.97395834870634
C         2.78412551184465    3.08592399836333    1.28014862172262
H         2.52992022628374    3.83045819912339    2.03964550635372
H         3.87400222392630    2.99747204416452    1.26906611963171
C         2.27795415836014    3.53036847291956   -0.08532446149046
H         2.71954757245962    4.49076016107449   -0.34574458036806
H         1.19723716902459    3.64849471044203   -0.08709823901313
H         2.55045229427095    2.81682914010377   -0.85891091433365
C         2.47914606009704    0.25823559284455    0.57888633808396
H         1.92685592957542   -0.64532319831521    0.84887506384969
H         2.09667039044463    0.62538429461020   -0.37629043187125
C         3.96980879070480   -0.05230665714933    0.50973000986265
H         4.16283504055101   -0.87314330179534   -0.17742916102222
H         4.32461790866575   -0.34049796580359    1.50184320215996
H         4.53880325348964    0.81437348055624    0.17927634681409

