69
CSD_code = NAVPAB | q = 0 | S = 0 | Stoichiometry = C34H28ClIrN2O3 | MND = 8
Ir       -2.81771912204501    0.66242751228568   13.32179003963779
Cl       -1.69309990127773   -1.24746615505580   12.52931996949836
O        -0.99918062320243    1.53055756160183   13.88906726578547
O        -3.52442152755917    4.08869279915503   11.52527039150174
O        -6.25691741737450    3.28448203211798    7.20387429224823
N        -1.61189261803184    2.26922447932150   11.16781870054227
N        -2.50540787061132    1.44840211280779   11.52957025729635
C        -3.66572352400476    0.85140032074699   15.42331993283318
C        -4.21834644857113    1.88581612562678   14.57122438531815
C        -5.04731041919157    1.26288310463334   13.59646725799730
C        -4.86299899897319   -0.14478191544323   13.71400134498248
C        -4.04809801025868   -0.39265283096487   14.89588614425310
C        -2.88314020330409    1.12413223441871   16.66587852190067
H        -3.47248684177166    1.73298613890805   17.35212288534298
H        -1.96808147114614    1.66618510769974   16.42792096758630
H        -2.60824661722165    0.19932981108261   17.16550965554451
C        -4.15194700128830    3.35293641333098   14.83816346244925
H        -5.05557892370395    3.68261010452328   15.35432633503470
H        -4.07096839152283    3.90755080833089   13.90517917885979
H        -3.29226369215763    3.59354933323456   15.45843750364914
C        -5.99602511350103    1.97518313588167   12.69075413416489
H        -5.58729087649775    2.93292829992493   12.37914729291496
H        -6.92731406599446    2.16699109190008   13.22692297946018
H        -6.22814000643259    1.38615438587672   11.80649615162893
C        -5.64034663355555   -1.21109995403538   13.01112775048874
H        -6.47218763088551   -1.53291256185048   13.64056299176757
H        -5.01118655568952   -2.07650651620687   12.81515893596874
H        -6.04273754176636   -0.84946735359065   12.06825083887642
C        -3.81794323965982   -1.75484368700962   15.46494357100037
H        -3.35265180466715   -2.40310148077326   14.72387747771065
H        -4.77022086133673   -2.19977864058914   15.75676516165741
H        -3.16866621006452   -1.71368613823272   16.33500790125629
C        -0.31159669351890    2.36294326217357   13.22807521720031
C         0.80250571561375    3.00084060949818   13.86598528707863
H         0.99904934969224    2.71514355046853   14.88848526751050
C         1.58079055380605    3.90006696711653   13.22059588426852
H         2.41860962762036    4.35477496272955   13.73070452355430
C         1.33064903151159    4.27880517010992   11.87088585136532
C         2.12396360545198    5.23077760838106   11.21348016382287
H         2.94859667285395    5.68060092193542   11.74778545166616
C         1.85680184276962    5.58994942291653    9.91519392201688
H         2.46922647238608    6.32661781987361    9.41680691761601
C         0.79086629835072    4.99831117544994    9.23529646797816
H         0.58428158422059    5.28253468279521    8.21366651047550
C         0.00571913043530    4.05666643576124    9.85604789005181
H        -0.81420437076118    3.59057013153154    9.33186563919113
C         0.25224192460402    3.68224100350096   11.18363455836663
C        -0.58335551566530    2.72372312303215   11.86145947758374
C        -3.52794493563692    1.28689077296377   10.58618309732207
C        -4.02182025455068    2.41497567614742    9.90977149917793
C        -3.70163137984902    3.78712140931830   10.35839538521896
C        -3.72767100404923    4.79794876042769    9.28128682869630
C        -2.98389455358695    5.96559464760237    9.40610460304205
H        -2.36531412178340    6.09483691241028   10.28161214311115
C        -3.02890042603485    6.92666084485989    8.41173045167799
H        -2.43523721941133    7.82367432224545    8.50470371983857
C        -3.84223018895404    6.74355005587692    7.30265693536212
H        -3.88489830453883    7.50010688485796    6.53351572812895
C        -4.60352955276802    5.59484139835376    7.18213391936047
H        -5.25203766822350    5.43911442008096    6.33287920536021
C        -4.54204630911863    4.60582567090679    8.15920931559499
C        -5.35022806667647    3.37478433479476    8.00745955011639
C        -4.92027920960139    2.23319773946222    8.85031337445795
C        -5.37940370787369    0.95717450971790    8.54038851446018
H        -6.08436648255943    0.85006023719541    7.72969746823398
C        -4.92481637317813   -0.14310232835514    9.24985997807287
H        -5.27909160493671   -1.13093117443392    8.99718679313029
C        -3.98589726438342    0.01257579146527   10.25271173203036
H        -3.56276643833914   -0.83849341284022   10.76526704872712

