81
CSD_code = NAVQUW | q = 0 | S = 0 | Stoichiometry = C24H54HgSi2 | MND = 2
Hg       -0.46363932821627   -2.17705751204356    5.64757422044722
Si        0.71343968395129   -2.40728448882578    2.80383224212231
C         1.67205307039718   -4.15126291051931    2.71588397704023
C         0.67551789933928   -5.30970655599331    2.63893027019440
H         0.13742087939763   -5.31464820747784    1.69590312755393
H        -0.04327928795268   -5.25662267371696    3.45514028330579
H         1.20364485293811   -6.26056895857774    2.71945848112371
C         2.48370072348869   -4.36939684660359    3.99664290033001
H         1.83894529585801   -4.32306048378503    4.87542651006830
H         3.26818782825080   -3.63066622442301    4.11373920620261
H         2.95198489468908   -5.35379316273897    3.97812714457280
C         2.61730633073038   -4.25413431001330    1.51819066304089
H         3.42362563780854   -3.52916318243798    1.58705451598800
H         2.09030545929236   -4.09561915856755    0.58124764456391
H         3.06868152179849   -5.24681185941639    1.48546539020557
C        -0.82191308533034   -2.33765184117713    1.53645156510093
C        -1.97491988719737   -3.19927248340895    2.06073526733966
H        -2.27835561197096   -2.87412032909697    3.05688789296827
H        -1.70898113455967   -4.24870178560725    2.11417478217407
H        -2.83887755473813   -3.10671886936044    1.40219008940915
C        -1.36773052745489   -0.91226771550034    1.42978174299708
H        -1.60742168325663   -0.51502469371451    2.41485669772673
H        -2.28230354174932   -0.90778136296212    0.83557147528212
H        -0.66052627638774   -0.24656629716331    0.94442094757045
C        -0.45840492826200   -2.81617747379691    0.13023730151235
H        -0.18152959115202   -3.86680311518078    0.12905712572898
H         0.36573006156728   -2.24199034452937   -0.28429166957076
H        -1.31565789871902   -2.70065683693566   -0.53459732889373
C         1.95066713083777   -0.86542685545627    2.55858920717225
C         1.31628173699499    0.41093432495132    3.11997871491578
H         1.05741605686518    0.28322667549225    4.17199092067605
H         0.41767151221832    0.69090116766373    2.58239051494219
H         2.02055905616488    1.24008513308872    3.04803305202327
C         3.24408909018520   -1.08226646652852    3.34665112290284
H         3.83346567600423   -1.89608131440139    2.93529238431475
H         3.02879917627379   -1.29587647101784    4.39241504328589
H         3.85811534556986   -0.18167021257793    3.30858649657469
C         2.31902810382999   -0.62164116571764    1.09452700605528
H         1.44852730989899   -0.33854435838371    0.50924703422693
H         2.76465220228061   -1.50463380798001    0.64454420941817
H         3.04225004313788    0.19213153436073    1.02405584033499
Si       -1.64071445582317   -1.94711927624121    8.49137314759969
C        -2.59945860410735   -0.20322726410619    8.57961912185334
C        -1.60301703519271    0.95530355020887    8.65653352761469
H        -1.06483593118896    0.96023402738766    9.59950924932929
H        -0.88428298982615    0.90237937676815    7.84025748028483
H        -2.13124813816285    1.90611533269383    8.57613266424378
C        -3.41120120313688    0.01491761053535    7.29891147664398
H        -2.76656098142368   -0.03127213225733    6.42003305027741
H        -4.19564657767904   -0.72385239352958    7.18182270098215
H        -3.87958717183401    0.99925804850406    7.31755122508987
C        -3.54462076822499   -0.10053803933675    9.77740579501145
H        -4.35088265421269   -0.82557382140276    9.70856298744217
H        -3.01754355266115   -0.25905335751661   10.71430570150148
H        -3.99608618016813    0.89209175098909    9.81021271071822
C        -0.10527014986616   -2.01666759032014    9.75865317454728
C         1.04762635000225   -1.15492329834886    9.23430910236715
H         1.35105050040209   -1.47995456173672    8.23811363408256
H         0.78161409858463   -0.10551135665142    9.18097724844318
H         1.91163050507419   -1.24744938303046    9.89279095579772
C         0.44067463637275   -3.44201853941229    9.86515764926733
H         0.68033753575674   -3.83918265567022    8.88004420761030
H         1.35529539731847   -3.44646012799258   10.45928801207647
H        -0.26641080914367   -4.10783161000535   10.35053629334747
C        -0.46870790720673   -1.53830851953805   11.16494865175556
H        -0.74566626247489   -0.48770767646042   11.16624917076002
H        -1.29274777456967   -2.11259136246973   11.57953679547475
H         0.38862174336635   -1.65379918574820   11.82968098230172
C        -2.87777765581316   -3.48908762234183    8.73665904433125
C        -2.24329340109867   -4.76532938046907    8.17510915502009
H        -1.98451146975171   -4.63754666158424    7.12308394760965
H        -1.34463062721846   -5.04527135446785    8.71261921988001
H        -2.94749500370912   -5.59453938114974    8.24704331810344
C        -4.17125699789425   -3.27227279673628    7.94868677024038
H        -4.76069688888808   -2.45855730185985    8.36015052217536
H        -3.95607266528489   -3.05857229778121    6.90291703774403
H        -4.78518589456009   -4.17293004097005    7.98672988220974
C        -3.24600446103738   -3.73299093592258   10.20073657165537
H        -2.37543959479199   -4.01605659514035   10.78593517918235
H        -3.69168303662422   -2.85007840461824   10.65082363930302
H        -3.96914016632764   -4.54683327260939   10.27119498292129

