81
CSD_code = NAVRAD | q = 0 | S = 0 | Stoichiometry = C24H54Si2Zn | MND = 2
Zn        8.21690559212271   -2.25768900029446    5.57081496282607
Si        7.29531523107841   -2.12980199711982    7.86193412335531
C         6.42749181415625   -0.36708300954613    8.01308570659820
C         7.31157846211974    0.67749644420820    7.32636468433241
H         7.52528262908934    0.38360227071665    6.29405838683491
H         8.25465325789780    0.81621545625266    7.84145939855787
H         6.80324025075412    1.64164685062964    7.29980589345017
C         5.10166593269248   -0.35713174805666    7.25205383900594
H         5.24278704976931   -0.69201590005331    6.22463022977137
H         4.69537458047285    0.65476482063108    7.22014989775215
H         4.36041971319521   -0.98972777162170    7.72966712489522
C         6.15637061395103    0.08239277506277    9.44794483907000
H         5.53360756181187   -0.63720394060993    9.97225284976512
H         5.63823937516702    1.04260955493157    9.45279200279878
H         7.08107058768311    0.20457143723145   10.00467139368285
C         8.81704751116732   -2.30120901516468    9.10182147524055
C         9.65716662518938   -1.02408396372239    9.09554010257783
H         9.94590396410884   -0.75612124698951    8.07921110202984
H        10.57046434046930   -1.17343033316076    9.67297822936875
H         9.12380855491257   -0.19067694551535    9.54136661088968
C         9.74179127410139   -3.41195700512285    8.59644545306108
H        10.64769878611778   -3.45200990844014    9.20183923377480
H        10.03929878937395   -3.22404051696165    7.56040159155887
H         9.27137689597295   -4.38691724720264    8.64215381088935
C         8.42352469035841   -2.60538840409304   10.54642165470537
H         7.76287336828503   -1.83868144643552   10.94177350584783
H         9.31061240196900   -2.64506565788233   11.18047196563463
H         7.91994509554775   -3.56470726950963   10.62471050769193
C         6.00247606749133   -3.59925835946833    8.08865437364694
C         6.73034738961931   -4.93503166999135    8.24095835802773
H         7.27160149164886   -4.99144611816901    9.17993436960532
H         7.42927822604721   -5.09083829305126    7.41982072428997
H         6.01252651410007   -5.75631153870052    8.22827758750481
C         5.16567346866045   -3.72173532317036    6.81218373713576
H         4.52923135896307   -2.85829739854364    6.65750756952122
H         4.52379098540447   -4.60155127385772    6.86605762979378
H         5.81207235080375   -3.83162203356597    5.93643660002583
C         5.06251869804692   -3.43211591279683    9.28150034712241
H         5.62071661615392   -3.33915127019224   10.20908913991276
H         4.40469427460900   -4.29810272299994    9.36985526731712
H         4.43513786050506   -2.55244151875767    9.17004155042477
Si        9.14124318332012   -2.38655835139855    3.27926617964978
C        10.00804614270509   -4.14990771443642    3.13189387235169
C         9.12217787831014   -5.19386123940074    3.81726143599811
H         8.90526048704659   -4.89881018639493    4.84860656152196
H         8.18067719602787   -5.33340701957878    3.29947484719370
H         9.63069159596012   -6.15785644820063    3.84644219393753
C        11.33237428896830   -4.15991630250090    3.89549427760202
H        11.18927541319185   -3.82500690354092    4.92264040572508
H        11.73849973961650   -5.17184741631802    3.92815758307622
H        12.07460217950176   -3.52737426760273    3.41933129772831
C        10.28161979110829   -4.59971656585838    1.69765610915934
H        10.90581153207454   -3.88058824735667    1.17442338853928
H        10.79915415802504   -5.56024268452733    1.69408657732472
H         9.35791728996678   -4.72140345452603    1.13917198220219
C         7.62045268794036   -2.21492014323918    2.03858725832022
C         6.77996664772930   -3.49177825415268    2.04453383063045
H         6.48999568025130   -3.75921836465173    3.06063761957573
H         5.86741951559554   -3.34237320471386    1.46595292668861
H         7.31362837800503   -4.32552068523595    1.59968187959879
C         6.69563977727489   -1.10343778164797    2.54220038386158
H         5.79026769080190   -1.06365103287607    1.93597584072675
H         6.39720256970628   -1.29029018300920    3.57818562248537
H         7.16645158183770   -0.12868324279715    2.49597461179996
C         8.01635127745794   -1.91178665071200    0.59446732682507
H         8.67682912619581   -2.67929897250782    0.20039919527217
H         7.13011551957971   -1.87161663749393   -0.04072016244525
H         8.52097495401046   -0.95300673724364    0.51638438900331
C        10.43465737024867   -0.91737404658150    3.05543240805544
C         9.70749111446239    0.41844195689352    2.90046304676021
H         9.16806879006982    0.47416036781954    1.96039208090796
H         9.00705581866568    0.57529032774855    3.72009098345388
H        10.42562416749838    1.23941863145506    2.91373634265946
C        11.26878291838334   -0.79428145098510    4.33358667762278
H        11.90411467706694   -1.65803237192232    4.49054902874770
H        11.91150922673793    0.08488516314590    4.28024942586805
H        10.62061083173661   -0.68299052273753    5.20773964609132
C        11.37681104540815   -1.08611499898745    1.86460762914952
H        10.82040499085377   -1.18034659710341    0.93607915835912
H        12.03468499342849   -0.22015429212944    1.77645768825783
H        12.00405752162727   -1.96557732360249    1.97841061941491

