81
CSD_code = NAVREH | q = 0 | S = 0 | Stoichiometry = C24H54CdSi2 | MND = 2
Cd       -0.48802210109095   -2.17958481410215    5.65955476035653
Si       -1.48958722498913   -1.97476465741310    8.06107192579436
C        -2.71944063712429   -3.50151650435776    8.32432709347459
C        -3.10352980163666   -3.76222059723485    9.78006482822853
H        -3.55505362337315   -2.88203243316096   10.22986900164925
H        -2.23589387770266   -4.04213899080048   10.37143660180320
H        -3.82420383415373   -4.57949367876553    9.84399990713580
C        -4.00177865264728   -3.28458957051197    7.52066048471911
H        -3.77060340979620   -3.06644961249666    6.47516171896260
H        -4.59520604649353   -2.47210471820974    7.92814393467998
H        -4.61981774613641   -4.18356698120710    7.54603290032698
C        -2.07855342223780   -4.76953235439404    7.75088171257367
H        -1.79218635760147   -4.62350640832806    6.70089103094728
H        -2.78785254329107   -5.59738251982497    7.79037732325289
H        -1.19686096385854   -5.06725889231231    8.30738310355461
C         0.02991962185202   -2.03629993899302    9.32607688625562
C        -0.30284220261357   -1.56300669040714   10.74023521066647
H        -1.11923881187008   -2.14076684590003   11.16515283790651
H        -0.58599017313271   -0.51386234589242   10.74701451565786
H         0.56414428981587   -1.67530768549901   11.39373256723105
C         1.17692840602511   -1.18041393359968    8.77899648747470
H         1.45004548813687   -1.49340707491840    7.76232045231064
H         2.05975997175326   -1.29232741201896    9.40990073255692
H         0.92308615211532   -0.12650873409520    8.75573794870366
C         0.57857069968611   -3.46072771964565    9.41141543435753
H         0.80189468172525   -3.84968313068460    8.41471537946437
H        -0.12161580652986   -4.12913960130616    9.90261893645255
H         1.50310908207562   -3.47483626249628    9.99080790862114
C        -2.44531102356399   -0.24543668667380    8.15239033274644
C        -3.24341852965914   -0.04156682042819    6.86053919544201
H        -4.04781847877382   -0.76180357187345    6.76126454221349
H        -2.59239595178086   -0.12627514571214    5.98027941223210
H        -3.68959006132004    0.95383802340313    6.85000512063587
C        -1.43897336492179    0.90427379208323    8.20445520270505
H        -0.90072410665612    0.92064933051190    9.14699097252473
H        -1.95398014577727    1.86135504556611    8.10709154515751
H        -0.71963094841164    0.82615558769405    7.38534014259395
C        -3.39454705507970   -0.10716239766143    9.34170760075418
H        -4.20290078961770   -0.83123735542996    9.28573597492272
H        -3.84306908610107    0.88779403596905    9.35819306274708
H        -2.86894342386473   -0.25283845316998   10.28162185460215
Si        0.51360091524637   -2.38382055736109    3.26039017262043
C         1.74207412858372   -0.85565006401063    2.99946847619188
C         2.12677757942466   -0.59513653439113    1.54390443404753
H         2.57936341070094   -1.47500578132502    1.09453582062596
H         1.25929765867411   -0.31608124494642    0.95189835533715
H         2.84677241726601    0.22275636632135    1.48034188804999
C         3.02409131145479   -1.07186387203092    3.80380546632466
H         2.79229861164554   -1.29000454981179    4.84915452206386
H         3.61809067635348   -1.88418826411943    3.39682281273582
H         3.64173176333502   -0.17259782432068    3.77869206691567
C         1.10005671299932    0.41210375409242    3.57223992997282
H         0.81223878113637    0.26565345403849    4.62175999514880
H         1.80903221579759    1.24029001838793    3.53390588011781
H         0.21897266950338    0.70947633822030    3.01462524575637
C        -1.00636852272569   -2.32309316246206    1.99606166524587
C        -0.67217315580658   -2.79597481461989    0.58216033694510
H         0.14375328845638   -2.21726478105347    0.15762002555235
H        -0.38779961333640   -3.84478735523669    0.57544921748610
H        -1.53902284272050   -2.68462224970158   -0.07167112215261
C        -2.15301056498663   -3.18000476498113    2.54229165434595
H        -2.42632802922678   -2.86780896512137    3.55914544122429
H        -3.03584787261205   -3.06825382570491    1.91135644237991
H        -1.89842569321837   -4.23373501925035    2.56500184254557
C        -1.55576069387734   -0.89898965494292    1.91046620339114
H        -1.77974496191982   -0.51033559238880    2.90711920643706
H        -0.85562743602941   -0.23013934044228    1.41977458595244
H        -2.47999989548694   -0.88532607077510    1.33058262980384
C         1.47014682280494   -4.11269548407415    3.17124145870463
C         2.26754507825026   -4.31619486715748    4.46358463237462
H         3.07119036450312   -3.59524145736787    4.56354927855272
H         1.61573973719242   -4.23194113486447    5.34328472587087
H         2.71450457152508   -5.31124726690104    4.47441815158841
C         0.46461947490592   -5.26302044581289    3.11796700085569
H        -0.07297735982951   -5.27936379096948    2.17504984012257
H         0.98016603971486   -6.21980874826269    3.21542748012892
H        -0.25533976137506   -5.18549017580601    3.93656607313981
C         2.42020346719452   -4.24975152030825    1.98250435929831
H         3.22802270833480   -3.52513632957596    2.03921106529057
H         2.86938691007371   -5.24440824046356    1.96615505079816
H         1.89517089670551   -4.10421145619953    1.04224110382075

