86
CSD_code = NAVTUZ | q = 0 | S = 0 | Stoichiometry = C44H35ClO3P2Pd | MND = 4
Pd        7.30246191976005   17.44453401517569    9.04804831571175
Cl        7.30253945420208   19.68257341889658    8.47125199613480
P         5.05926680730001   17.39029515063435    8.97677395990818
O         7.30228869486293   15.44355445050461   13.86208638035346
H         7.30214983942288   15.31182553172931   14.82289916579960
O         7.30286889339580   13.21559201484179   13.87575264511140
O         7.30228754968976   13.57720883287812    6.77789293856770
C         7.30241290496822   15.62454234449187    9.73691557298838
C         7.30248440527851   15.57019315944600   11.12102290369414
H         7.30255876763113   16.48218998115696   11.71849334685842
C         7.30254777023091   14.33892754628884   11.77359092322611
C         7.30251434354766   13.15016177553417   11.03439847616547
H         7.30264183662605   12.21182470974737   11.56745632354495
C         7.30249628570523   13.19712058817456    9.66101623445986
H         7.30254276428771   12.29635760520108    9.06536245175157
C         7.30239117635968   14.43393389974007    9.00513789669291
C         7.30280257497821   14.24621483216543   13.24798407847307
C         7.30217921068114   14.50335648733186    7.54933283925114
H         7.30194799757370   15.56920041325543    7.16760288633994
C         4.29027977849373   18.11517649095967   10.44567798664190
C         5.11651796851996   18.84488451738978   11.29435641076894
H         6.16801228178098   18.96413488273139   11.03050318072902
C         4.59811341284550   19.42227401060359   12.43910710451630
H         5.23767374027607   19.99079893040828   13.09803241334841
C         3.25415284255920   19.26907216923605   12.73869704700431
H         2.84542502258633   19.71983554247651   13.63108642846731
C         2.42995106296976   18.53378336166395   11.90017112075673
H         1.38403777688845   18.41248131901402   12.14220241223074
C         2.94299279116743   17.95148376479946   10.75584733866177
H         2.30951847532854   17.35837404616501   10.10954386439696
C         4.29475954953307   15.74514159909631    8.86068764521282
C         4.02461090072378   15.16264680100110    7.62714794929386
H         4.13480949395905   15.74402717758531    6.72154054468896
C         3.61510783033726   13.84308908596726    7.55923767677414
H         3.41006737542232   13.39487988177328    6.59859323431390
C         3.48412888771361   13.09492810127070    8.71672481807558
H         3.17760209698441   12.06135465089220    8.66001217933810
C         3.75179603146983   13.67069139145551    9.94872865976607
H         3.65413591172722   13.08837320876080   10.85302756120917
C         4.15894412940278   14.98813508275433   10.02200536356708
H         4.38167272030416   15.43690126568313   10.98130121363460
C         4.41456306703378   18.28727325786400    7.53764524936828
C         3.25499145918044   19.04987359498724    7.53757881130139
H         2.66596511614628   19.14500955298049    8.43846078176629
C         2.87068650497128   19.70737878973541    6.38133613761049
H         1.97241601481868   20.30746492208915    6.38105814744391
C         3.63612870738927   19.60828676386693    5.23177463623761
H         3.33316950028107   20.13055298107761    4.33628378977513
C         4.79949538610847   18.85420048029712    5.23185932029679
H         5.40377479124232   18.79027939267057    4.33890311727936
C         5.18939086233101   18.19961899171469    6.38298003142492
H         6.11608678667490   17.62663411016307    6.41324072266664
P         9.54569472529609   17.39047947592448    8.97740270123782
C        10.31496831078776   18.11704461623535   10.44530638618790
C         9.48892275347061   18.84753514532618   11.29348359255463
H         8.43734929423868   18.96638118315217   11.02985617025812
C        10.00764921218346   19.42625038106017   12.43741833995157
H         9.36823436510871   19.99540198018589   13.09594273323170
C        11.35173880417951   19.27358168824392   12.73669483640630
H        11.76071534481715   19.72538538269891   13.62844403044581
C        12.17574599144726   18.53747442547169   11.89869354965338
H        13.22175748431208   18.41656812029795   12.14049891159140
C        11.66238337730119   17.95384394775395   10.75519426378832
H        12.29570182024820   17.36007964380784   10.10933734819649
C        10.31038048476863   15.74527374405065    8.86303496480524
C        10.58038461472484   15.16133834400910    7.63014122304991
H        10.47020894190476   15.74179742625407    6.72388665592501
C        10.98959927743960   13.84166586096569    7.56364871510270
H        11.19509702922154   13.39250179087787    6.60350328097387
C        11.12050317257325   13.09476069513139    8.72192660645510
H        11.42758432963744   12.06123989972209    8.66640163027202
C        10.85307785547668   13.67192393899279    9.95328447901312
H        10.95086562373940   13.09062260754361   10.85829322414710
C        10.44620342299148   14.98950149509702   10.02519251701522
H        10.22339921049791   15.43939444091170   10.98399338846505
C        10.19006293787829   18.28572062892210    7.53704184914215
C        11.34985615175943   19.04798264530754    7.53563050316662
H        11.93918013996653   19.14412538551093    8.43620905103977
C        11.73401466864119   19.70385385988367    6.37841109568963
H        12.63247219055173   20.30365890788416    6.37707880492017
C        10.96822325491322   19.60346587606327    5.22919534705498
H        11.27110702967811   20.12441338313313    4.33291097289158
C         9.80461172052594   18.84975815157679    5.23062236927114
H         9.20007124824838   18.78481400171047    4.33791515432034
C         9.41486324724372   18.19681223301098    6.38272355431159
H         8.48801049059597   17.62410181694825    6.41400951587017

