29
CSD_code = NAVWUC | q = -1 | S = 0 | Stoichiometry = C8H10CoN2O8(1-) | MND = 6
Co        5.14532778341599    2.49350365941922    7.77629274268867
N         3.74615131729181    1.40354824540772    7.01769052751196
O         5.07486187675664    3.50182099131240    6.19226574727813
O         4.09085529697020    3.60387105140930    4.20560813035226
O         3.77909666336426    3.57997249477000    8.47126092856558
O         1.57294107846582    3.75619470761070    8.63650041210239
C         4.32353870257560    3.05925321467999    5.26673975292465
C         3.71804042102899    1.65507844075348    5.57020223118834
C         2.58659439613780    3.16502005715008    8.32037368809805
C         2.49389016456276    1.73230599542223    7.71286265215239
H         3.97141861798263    0.42273382516798    7.18190432790284
H         2.70622191409479    1.58326755332229    5.15872085972085
H         4.36554429899011    0.93550891760519    5.06333387344844
H         2.35963252275481    1.05668974332933    8.56112807590412
H         1.62424178207466    1.65932858694699    7.05210061387957
N         6.54450970382200    3.58345967895413    8.53488736915852
C         6.57262234272410    3.33193511964929    9.98237655511829
C         5.96711700095790    1.92776611917614   10.28584648584114
O         5.21579762673494    1.48519215853091    9.36032310323502
O         6.51155391435648    1.40702495027232    7.08133065970796
C         7.70405944771082    1.82196228853927    7.23223275556487
O         8.71771382302392    1.23075924242107    6.91614857190522
C         7.79676879615065    3.25468659496992    7.83971779144819
H         6.31925088388595    4.56427502625909    8.37066915935243
H         7.93102463730281    3.93028535482975    6.99143801007282
H         8.66641875160525    3.32767594139246    8.50047676028557
O         6.19983848304329    1.38312754093779   11.34696936551000
H         7.58444225462423    3.40374386531434   10.39385311682245
H         5.92512549759086    4.05150863444658   10.48924573225934

