105
CSD_code = NAVWIT | q = 0 | S = 0 | Stoichiometry = C45H55MnN2O2 | MND = 8
Mn       11.59707723833766    3.20345659652000    3.26080173709686
N        10.38845595553449    4.42987117462962    4.10460315447516
C         9.13321562678235    4.18126305156556    3.72085104657691
O        10.86491702619141    1.44449622514712    4.68145345194720
N        10.16218935306361    2.92166290769299    2.03608247466232
C         9.00522794549646    3.34242865248387    2.55660323246980
O        10.96348993133437   -1.54020816821886    5.49628524059655
C         7.61010231804188    3.29135634303441    2.17860054837232
C         6.92942769914413    4.08317236845900    3.14397039005832
C         7.82019776360162    4.65653126743614    4.09161473747440
C         7.29325502589709    5.46610163260701    5.07662820584788
H         7.92181171813666    5.93820153098005    5.81748248071018
C         5.90583858597932    5.68178479390601    5.09453126875293
H         5.50037745021256    6.31779377565138    5.86935938200531
C         5.04948312485613    5.12808311164596    4.17115751932443
H         3.98894296337278    5.32762728024053    4.22427018426570
C         5.55221254598842    4.29735818105751    3.14280791196489
C         4.82316283602634    3.66215169057752    2.11065047483222
H         3.75131980107010    3.78847620998937    2.05989140338462
C         5.47576216158636    2.89381392508361    1.17467534667511
H         4.89959757029618    2.42219570325867    0.39066546530058
C         6.86547421204213    2.69345160019338    1.18274537667818
H         7.32756231296279    2.09349571765727    0.41296624375158
C        10.59943992550056    5.54383946554094    4.95375832870264
C        10.90784363865229    5.36469729927845    6.31103395667041
C        11.09742813405870    6.47298319908828    7.12239462240221
H        11.31681120141254    6.33577512888242    8.17024842388697
C        11.00150664712838    7.75262193673565    6.61260558685485
H        11.15401883277511    8.60788164948453    7.25452279939633
C        10.70290554016456    7.92851800109191    5.27612098812811
H        10.62629601670720    8.93009618531651    4.88053532446247
C        10.49005594285854    6.84628364687989    4.43493154202017
C        10.97658222660926    3.97787628591586    6.90114934125831
H        11.03474263670027    3.27781284815160    6.06347016865628
C        12.21262603467224    3.78039942146199    7.77946133865614
H        13.10847145308919    4.09468810087136    7.24893875944849
H        12.31818062513266    2.73100724996802    8.04992597319040
H        12.14112513961597    4.35511931366533    8.69960275788217
C         9.69855082746124    3.69144837844358    7.69471261944721
H         8.82566705169812    3.76256295150071    7.04882040941437
H         9.58497635254778    4.41099846326810    8.50334157492166
H         9.73221855233238    2.69373046838396    8.12999397355543
C        10.16442571446280    7.10030862652970    2.98263081147713
H        10.01597538487730    6.13811837547032    2.48706035711310
C        11.32863529676551    7.81221112362836    2.28980458176313
H        12.23511287023382    7.21748373746023    2.37426808932940
H        11.51354066967467    8.78749798615608    2.73384652627532
H        11.10422906447618    7.95496074870709    1.23491387838908
C         8.87165341475255    7.90653270964099    2.84303332306855
H         8.04781971974720    7.38791045928029    3.32777815904572
H         8.62292818273850    8.03563764986773    1.79219655163419
H         8.97271861968298    8.89135792391049    3.29272439255389
C        10.11396960763819    2.42312129662615    0.70915582178829
C        10.07162752437212    1.04461329910769    0.45683043833412
C         9.90213974144305    0.59861605000779   -0.84617172158940
H         9.83581316175305   -0.46071754596106   -1.04345983948913
C         9.80025926907116    1.48761319566109   -1.89760523558988
H         9.65095307421632    1.12522282265609   -2.90418725910872
C         9.90737780039823    2.84272113881048   -1.65338640143647
H         9.85230983360908    3.53485351973009   -2.47951367377241
C        10.07335499420726    3.32790866824089   -0.36520098335356
C        10.18800934216150    0.04661909535160    1.58315025856495
H        10.50390244172105    0.59415966872103    2.47734653683573
C         8.83329443780680   -0.61066684586011    1.85638784821660
H         8.08555065911144    0.14138199852568    2.09844860766015
H         8.90762728166371   -1.30616135721747    2.69017359132508
H         8.49409207762214   -1.16069686650409    0.98075041982037
C        11.24892412747425   -1.01298808620979    1.27895072368753
H        11.35623221859166   -1.68880538257841    2.12583146713021
H        12.21048664801689   -0.54280121579712    1.08301749029155
H        10.97811986462319   -1.61246957143751    0.41352356180788
C        10.23045446672095    4.81140772269710   -0.13638513596532
H        10.58152270029695    4.95178139214440    0.89366583769224
C        11.28349779675425    5.40863804627879   -1.07361161597671
H        12.19371688293734    4.81328888249179   -1.05347436757143
H        11.52582353939960    6.42248411127794   -0.76185302743128
H        10.92388644663303    5.45075383695748   -2.09876888050492
C         8.89301284647429    5.53371207985790   -0.30783496644453
H         8.17103636747786    5.18806280567953    0.42788852033053
H         8.48611387780135    5.35032011905462   -1.30025875123331
H         9.02732368835780    6.60588118509501   -0.18420712911152
C        13.20041907393907    4.18198601961772    2.07952536722838
H        13.14463990477483    4.94290932879094    1.31326366801318
C        13.45926151231223    4.41568321851894    3.45454208501707
H        13.57314204833094    5.38388308869529    3.92233500620988
C        13.68644722011536    3.17324216232389    4.07161139361358
H        14.06035781516312    3.03560062921413    5.07760419410384
C        13.59857211794826    2.16535224782990    3.07085308289197
H        13.86107039706095    1.12329176848417    3.20236147168799
C        13.31952224943774    2.78865340737795    1.84563792596311
H        13.28847620446612    2.30819702344069    0.87841772544485
C         9.50394870284558    1.09266877932826    4.90597768397603
H         9.37363710303713    0.01141506680680    4.83286760980494
H         8.90438644596636    1.59681974768265    4.15132494653171
H         9.18984853142630    1.42588357841157    5.90065729460617
C        11.72572286460599    0.74537488441662    5.56591058119040
H        11.28037615241048    0.71524675359022    6.56842345064770
H        12.66248763868743    1.30271703672052    5.60182395269892
C        12.02432310466846   -0.68835154040244    5.12235734642431
H        12.17194273272771   -0.71414311684381    4.03354366870359
H        12.95579001632131   -1.02284122474720    5.60586656419687
C        11.21846927500373   -2.89316004739604    5.22170786164162
H        10.34634101126284   -3.44904684997985    5.55895798006275
H        12.10802420635749   -3.24565293480797    5.75799437862231
H        11.36707407027437   -3.06340799673653    4.14821018909758

