120
CSD_code = NAVZOB | q = 0 | S = 0 | Stoichiometry = C61H35BCl2F15N3P2Zr | MND = 9
Zr       10.03594585169357    5.38116679937348   27.71757317536525
Cl       12.24737245008846    5.70372029346635   26.81430383055203
Cl        8.39862211546478    7.14852815078871   27.84144149837659
N         7.94061263069521    4.28223982933168   27.43471795703149
P         7.41571052636853    4.89889084732328   26.05651667675541
N        10.30817594163590    3.50152508409909   26.51244580204724
P        10.09626341825859    3.98357950809018   25.00071350685906
C         8.92599057517219    5.34191917838143   25.16555600573115
C         8.90380426990329    6.38984465399268   24.32937059544547
N         8.91805535799774    7.37633730804070   23.69543758600316
B         9.26527067366956    8.83257321167537   23.56934356263980
C        10.07901857513639    3.94134600776657   29.76742805714574
H         9.71297098067404    2.92608484276936   29.83005450896730
C        11.41684636196252    4.32348731989588   29.51075077248104
H        12.24378448907943    3.65680951000669   29.29820617796564
C        11.52142100559457    5.71447418389964   29.73644769444001
H        12.43568514702231    6.29331244885543   29.70607709663624
C        10.25475021011405    6.19048805386727   30.12859717668066
H        10.02924168328345    7.19436812723916   30.46569233407538
C         9.36398514394249    5.09711311114579   30.15350453022749
H         8.34929036584586    5.12442477810784   30.52718135357556
C         7.03573669296246    3.92130353057681   28.46138280751148
C         7.05934299110147    2.62260959472382   28.96822584678962
H         7.73686831456828    1.89960702900399   28.53659618294763
C         6.22651689435328    2.25270779458989   30.00737628140886
H         6.26236010472754    1.24168065810007   30.38596792187893
C         5.34650476065477    3.16898710187631   30.55705452508629
H         4.69431132414353    2.87897385133938   31.36630094286015
C         5.31366091913336    4.46153020076904   30.06106371952291
H         4.63596135264123    5.18781305210288   30.48451650871271
C         6.14953369250007    4.83850993177965   29.02669409961540
H         6.13648355082410    5.85628445848044   28.66418797460836
C        11.19838218543978    2.47301055583995   26.90110186701597
C        10.69786314865161    1.42099551557527   27.66981266201685
H         9.64185010252357    1.40051729795667   27.89822324446496
C        11.53156851131835    0.41673477117844   28.12332811735603
H        11.12557456790271   -0.38739197432634   28.71933985020119
C        12.88045553699705    0.43770661562043   27.81005946036816
H        13.53260887773663   -0.34593824574142   28.16360625161466
C        13.38417148635635    1.47198008861372   27.03954110283125
H        14.43425548678055    1.49891998101177   26.78995071673199
C        12.55604966411691    2.48269203908232   26.58515301941552
H        12.96324298451693    3.29830690105376   26.00727838652310
C         6.11775401430429    6.20289909309154   25.99238164441560
C         6.28909729300287    7.55348100068071   25.72489616481952
H         7.26736319587515    7.95791574312704   25.52923780959554
C         5.19344114536321    8.39944209300421   25.72189297059765
H         5.33656261381831    9.44753021288188   25.50604573039493
C         3.92755593586620    7.91288169339747   25.99670932061553
H         3.07880065899877    8.57953333899293   25.99468382900380
C         3.75315903633531    6.56768127236067   26.27949225265661
H         2.77071696012250    6.18066418145639   26.50400135374971
C         4.84141588831497    5.71704300388735   26.27269709122734
H         4.70805915253600    4.66512912147971   26.49406222412100
C         6.57143085746046    3.66225028495223   25.00772054665234
C         6.10746462932733    4.06304102198760   23.75839060952931
H         6.27318688409946    5.08032766268547   23.42914109571599
C         5.43061233253747    3.16490737821637   22.95678450627508
H         5.06791489682907    3.47552588591628   21.98892239359709
C         5.21031815676921    1.86915375257193   23.39919996491911
H         4.67343523422200    1.17138480924868   22.77448685581376
C         5.67276375660663    1.46919336784981   24.64093395805444
H         5.49682299887238    0.46127406791009   24.98588779102031
C         6.35637712301638    2.36433716520024   25.44546000323720
H         6.71553024804526    2.06821047279581   26.41942124523248
C        11.53728439621111    4.41847156805915   23.95069859794388
C        12.00700078373441    5.69629792542767   23.68354560622287
H        11.48755478209322    6.56172380382435   24.05375967118690
C        13.16740487859189    5.86031986642892   22.94618822413718
H        13.54239712645687    6.85535093533963   22.76483987316768
C        13.85824691960574    4.76273230762660   22.46327878874039
H        14.76417466801543    4.90236846143389   21.89383010077857
C        13.38703135581652    3.48508883908910   22.71899496654994
H        13.92091765985396    2.62310575971283   22.34865749517911
C        12.23558497536295    3.31426334346032   23.46276915400210
H        11.87428803877778    2.31669858340458   23.67923575941343
C         9.34747680940216    2.69042373298944   23.95271371371505
C         8.97250542548983    3.03021469483900   22.65685370436081
H         9.09496344865394    4.05065833300004   22.31756122007913
C         8.45298779152760    2.06611930431149   21.81533715163696
H         8.16079533454303    2.32981350527574   20.81046024526231
C         8.31430976446159    0.76044044683006   22.26079511088667
H         7.91586873903914    0.00635239124464   21.59918113033745
C         8.68815465126169    0.42057160777142   23.54970128276523
H         8.58368879501440   -0.59756858217316   23.89333960159887
C         9.20237318207862    1.38465898972063   24.39934525697774
H         9.50388654314970    1.12861230890070   25.40415423908297
C        10.67490780448911    8.88370893172449   22.73051559754629
C        11.80082422815408    9.61530208474100   23.08865764634271
F        11.83281395329572   10.29636129847658   24.24315185361254
C        12.93710766911654    9.68766797552412   22.28662975501381
F        13.99278564447656   10.40570059947586   22.67873864250810
C        12.97653902928551    9.00318495130272   21.07799834212924
F        14.06351489707852    9.05410242134665   20.30414370260212
C        11.87326659603413    8.25042826359304   20.69346444433950
F        11.89417497399283    7.56962714117471   19.54160566722028
C        10.75412020579140    8.20940591438953   21.51529552612642
F         9.70917186127650    7.47549430930630   21.09617339565185
C         8.12809845023617    9.56617681655767   22.65407734729085
C         6.87152319387641    9.02998145195170   22.39895163043379
F         6.51724787664382    7.83611898950861   22.90623187652090
C         5.92176747986648    9.66879752203473   21.60765356065973
F         4.72383646233752    9.10196416662567   21.41190124020668
C         6.21805624336925   10.89073785450625   21.02014499104824
F         5.31551033083970   11.51435277088177   20.25910201258764
C         7.47425191698320   11.44780634265374   21.22986215077875
F         7.79205386430805   12.61206431159738   20.65701207880126
C         8.39555360191517   10.78200313425578   22.02920355630016
F         9.59591598879188   11.35854845517844   22.18683776959823
C         9.44592204010398    9.47042437159982   25.08161709833926
C         9.04407198937851   10.73690370608357   25.51008378015742
F         8.32981373138925   11.52698607477447   24.70063623156108
C         9.32225730647004   11.23464085051066   26.78210847916265
F         8.90432360500419   12.45764046569029   27.11609994116669
C        10.01020698251712   10.47018234920787   27.72703031084554
F        10.25272141121949   10.94877154842463   28.94471883062759
C        10.39360802432862    9.19703080470828   27.34886151143967
F        10.97620869703904    8.27979423304659   28.16665870248772
C        10.10837136934483    8.75783210720689   26.06607560051292
F        10.49405256575650    7.46505903392795   25.87754508284662

