84
CSD_code = NAVZIV | q = 0 | S = 0 | Stoichiometry = C41H21BCl2F15N3Zr | MND = 9
Zr       -0.59063265983420    6.33613618005885    6.38062008268127
Cl        1.53791091585072    7.02968168213440    5.46851000087280
Cl       -1.23320124251813    4.04654845559803    6.81829124434585
B         1.48411953975937    3.99813427471830    1.93865478563001
N        -1.08594643425037    8.20614340451175    4.97444105872953
C        -0.76843063603454    7.80353656284698    3.78639262434122
C        -1.10590172947202    6.44465561848789    3.41800443798836
C        -2.21110265198290    5.75902572072995    4.05577529416597
N        -2.50264551218494    6.12467768151072    5.26875849796386
C        -0.11739363671489    8.63994660165263    2.72772254239224
H        -0.25476646661299    9.70030920819275    2.92617642878742
H        -0.50653440422937    8.39386076034914    1.74285053027994
H         0.95184809424595    8.42130330223707    2.72900011971909
C        -0.31972282689729    5.75148395090740    2.55758843382992
N         0.40792529212994    5.04711906748516    1.97976346199735
C        -2.96141492802628    4.74325469964295    3.24547576861135
H        -2.59040560440742    3.74800576288742    3.49476098053913
H        -2.81324579319938    4.90687352813001    2.18110237453578
H        -4.02428808728705    4.77793984604644    3.47993192488577
C        -0.96838389815188    9.56793383508033    5.33362135378575
C         0.26554936217259   10.20489250466219    5.45447244296075
H         1.17194198355000    9.65598912764945    5.24578637012020
C         0.32188874778902   11.52527217063077    5.86368468974168
H         1.28154544654102   12.00999546766605    5.96032528929525
C        -0.84040616198483   12.22518997582207    6.14179797863287
H        -0.79013958143701   13.25534019871092    6.45853689555499
C        -2.06865593502108   11.59952579229430    6.00623946070844
H        -2.97895230566600   12.14305928884858    6.20994187964683
C        -2.13595058804988   10.27765945677602    5.60692376609187
H        -3.09171360425856    9.78877718937888    5.47917651267977
C        -3.69226892185016    5.78082261981560    5.94565714171737
C        -4.20204243488519    4.48864526874143    6.06372446751286
H        -3.66770671831815    3.65172878105428    5.64553471239732
C        -5.36062645678683    4.27023605739516    6.78960779458963
H        -5.73863496882201    3.26426338168999    6.88830981744119
C        -6.03178133177928    5.32366991720365    7.38588138505894
H        -6.93542136040647    5.14330853940506    7.94718791382955
C        -5.53337678161848    6.61144426029367    7.26496312478624
H        -6.04992092570631    7.43875890773372    7.72777010443380
C        -4.36914864394425    6.83906769356544    6.55734531681738
H        -3.97349007460882    7.83961185705520    6.44903910807015
C        -0.41932577046215    6.06221062938224    8.87389162220911
H        -0.25475923065681    5.10908416050007    9.36013566239584
C         0.57955897824787    6.98958099511695    8.51486791084354
H         1.64299397322164    6.87888692127736    8.68977308368416
C        -0.05788052334312    8.15107938383142    8.02807922973477
H         0.43534195668831    9.08384198115355    7.79247388087832
C        -1.45515624542530    7.93469938677177    8.06648867764944
H        -2.20919999549409    8.69227490085978    7.90049833218394
C        -1.67849654365429    6.63769137584243    8.59013531008252
H        -2.63867905637395    6.20604045496653    8.84420036391609
C         2.28522810614841    3.98834824539822    3.37921136457568
C         3.65060674000954    3.71502944419698    3.49517197457815
F         4.37327594369947    3.45291503044545    2.40220182438232
C         4.32475948306271    3.69754772867640    4.71330582939057
F         5.62945271023787    3.42924216943754    4.74830599207678
C         3.65169609858915    3.98282931855528    5.90247390077254
F         4.29611125323731    4.00529521239210    7.06569545209819
C         2.29866168657433    4.25901613328942    5.82342199807945
F         1.55798630580606    4.63744463734200    6.90644463290801
C         1.66347335910866    4.23625702205237    4.58974054268510
F         0.32678693320103    4.54856150502815    4.65883203103546
C         0.70049396913817    2.59164227532876    1.66960473279862
C         0.98197632172999    1.39942915392880    2.32549372943183
F         1.92278723889142    1.35687084627442    3.28158716763118
C         0.32016929938319    0.20764574744429    2.04307780432640
F         0.63224998140994   -0.90726877527254    2.70810121073202
C        -0.67450725632554    0.18168764633246    1.07362758883000
F        -1.32543494216082   -0.94964282320007    0.79867584829735
C        -0.98904777705692    1.35693535028492    0.40164319803473
F        -1.95403382187677    1.36300737868345   -0.52445284921020
C        -0.30175249529911    2.52550609231190    0.70546704648741
F        -0.64320108076189    3.63344099069223    0.02483808542654
C         2.48203236725296    4.40766487535166    0.71732289764991
C         2.92964071861331    3.53933746411750   -0.27013347218176
F         2.54057576688213    2.25594505170881   -0.26683468596037
C         3.78777522774357    3.93950522545667   -1.29037407321727
F         4.18352231632232    3.06540294086800   -2.21929334007485
C         4.23002174024712    5.25563764801992   -1.34476892665404
F         5.04834480521810    5.65582668158277   -2.31960986207083
C         3.80609739338046    6.15145930311184   -0.37021567957702
F         4.21636177483143    7.42437675127609   -0.40326230621382
C         2.95126718466422    5.71438410841060    0.63348778780311
F         2.56874903014954    6.61500083129605    1.55822036342150

