93
CSD_code = NAWCAR | q = 0 | S = 0 | Stoichiometry = C49H39CuN2P2 | MND = 4
Cu        4.77853169955327    6.52859620086541    3.68925973225294
N         4.25187357928343    6.15236748534762    1.68891827403346
N         3.66682529604455    4.99546384440258    4.04355187176739
P         4.32761103626037    8.65402954786139    4.27011349990686
P         7.06647617092258    6.29174623881367    3.54727685363274
C         4.58944553395735    6.77699803761097    0.57590434868489
H         5.11992454492832    7.71370739188903    0.70515585521934
C         4.28718043198974    6.28982368976910   -0.68114766655522
H         4.58235761982590    6.82925740934104   -1.56734332163094
C         3.58973466244753    5.08696540643539   -0.76554867544791
H         3.33771166676989    4.67124752658683   -1.73106120684267
C         3.22251025210455    4.43796908119643    0.39102477952404
H         2.67776406528722    3.50812317258382    0.35848163051686
C         3.56806249709954    4.99661194487572    1.63085249242732
C         3.22829841265442    4.39468080625329    2.89036184634120
C         2.48151820121030    3.25536143265535    3.17427209292385
H         2.01614150071129    2.59498870775541    2.46742350427180
C         2.44710935501515    3.14814930183058    4.57523199300310
C         1.86545773737130    2.25021332151378    5.47759205589560
H         1.29559413596064    1.40544938628986    5.11491669618794
C         2.02967379672613    2.46742624107980    6.82215864104235
H         1.58777295949317    1.78586180551590    7.53617812920887
C         2.75810956105862    3.56846028353046    7.30158270342182
H         2.85130862825960    3.70617994710759    8.37039568257736
C         3.34362149254700    4.46796193796711    6.44608957094065
H         3.88904023674298    5.32688572852448    6.81531846886616
C         3.19897739036255    4.26049190355496    5.07171781620889
C         2.84853914485759    8.86084709594568    5.31146572320994
C         2.58905687395346   10.04149635582540    6.00206299727291
H         3.27070377058840   10.87695898297458    5.91475651463922
C         1.46088142494938   10.13569926464308    6.79451880285847
H         1.25487214186918   11.05126969790062    7.33028168219664
C         0.59545443078917    9.05733115802590    6.90726838850509
H        -0.28213191930557    9.13714712181862    7.53213223031130
C         0.85605146212510    7.88023638544399    6.22579941115569
H         0.18713271484010    7.03758044842255    6.31895382762376
C         1.98179517931646    7.78049426188835    5.42723575231926
H         2.20653593884183    6.86617044277234    4.89400142799623
C         4.13636398102572    9.93354011809955    2.99726920049829
C         5.25937559473379   10.23917091239253    2.22815137209738
H         6.20818908854218    9.78132040903689    2.47444368100481
C         5.16044241793923   11.11963972806484    1.16934499592288
H         6.03793995897747   11.35858508415208    0.58551389066771
C         3.93539192191814   11.68792921895334    0.85370222653689
H         3.85593925710934   12.37520368714908    0.02428665174443
C         2.81163228115030   11.36556215071674    1.59671329440827
H         1.85526244858326   11.79984887862675    1.34341892061575
C         2.90502204182669   10.48611219540989    2.66094260624401
H         2.02512507942163   10.22954775285210    3.23451635874864
C         5.60630671965005    9.32736335252782    5.37797151037044
C         6.13017913996513   10.61303154914772    5.32501809275800
H         5.77171941610457   11.31820145876567    4.58821078598739
C         7.12069713852357   10.98635608819194    6.21682924856945
H         7.52739892080787   11.98676775659938    6.17532299220646
C         7.59355220253621   10.08732557817506    7.15903608728735
H         8.37286452847049   10.38504651744359    7.84525319192227
C         7.06826564961293    8.80543115136358    7.21991530087287
H         7.43758372054536    8.09884510422059    7.94911142678597
C         6.07890620488664    8.42946599763059    6.33252376081034
H         5.66065563783349    7.43105322888069    6.35771155231773
C         7.93623606216479    5.81394673094885    5.07679138679853
C         9.28950931941124    6.02743885878861    5.31011775486003
H         9.89747879065836    6.53039621172732    4.57151389421754
C         9.85623266626803    5.59377599544131    6.49496051039435
H        10.90695385577273    5.76573463453702    6.68007745035745
C         9.08609534440900    4.93564496054805    7.44065090325159
H         9.53682840483262    4.60239945802008    8.36411418715324
C         7.74265379092812    4.69797972732741    7.19848642868141
H         7.14243882767140    4.17448983230381    7.92811124831565
C         7.16945239189892    5.13537862233298    6.01930131238442
H         6.12143230799530    4.95666175537444    5.81208611002318
C         7.58515948058846    4.87501653971112    2.52114841818117
C         8.81399445733600    4.79769954202237    1.87404154671889
H         9.51520820453216    5.61826999728690    1.93705463629979
C         9.13481597515464    3.66806127483645    1.14406794762229
H        10.08774700562287    3.61078314790422    0.63756324419204
C         8.24297827485990    2.61024370375470    1.06231437354773
H         8.49963036786207    1.73306581524405    0.48654708295626
C         7.02730607790304    2.67648078740978    1.72270747976308
H         6.33260724827584    1.85129858133843    1.66829823935459
C         6.70047621974675    3.80388769058468    2.45293103964235
H         5.75531509783638    3.86613833229806    2.97386848135771
C         8.01913869907600    7.68180250888121    2.87530272907678
C         8.50930335024972    8.68499183277694    3.70959557994691
H         8.44478246846259    8.56907484060457    4.78206601291894
C         9.07290891797804    9.82578274979712    3.16825352117792
H         9.45504096042139   10.59476593382245    3.82386776251098
C         9.13908961096737    9.98799406337567    1.79358391065428
H         9.57938159729600   10.88067626549873    1.37430443383690
C         8.62865983547143    9.00645256781306    0.95761090451988
H         8.66711072555394    9.13560631795053   -0.11462495262428
C         8.06201362134368    7.86538432529985    1.49266961415923
H         7.64728306392488    7.10547947910603    0.84335523284036

