99
CSD_code = NAWCEV | q = 0 | S = 0 | Stoichiometry = C53H41CuN2P2 | MND = 4
Cu       12.40746840597643    8.86718928895975   12.88017341649957
N        10.51202838649730    8.68657820747605   12.07272154869124
N        12.30055495841188    6.96064765544912   13.07826055706813
P        11.50815430693051    9.89664983397059   14.92933948698248
P        13.84578324087808   10.42975404056146   12.25272184032387
C         9.65348310490470    9.64974240860372   11.69495832818784
C        10.11792632800164   10.97344875224905   11.57360703706191
H        11.16565949478185   11.16173795348537   11.77798969666465
C         9.26045788455753   11.97845610441085   11.21610033510866
H         9.62190706818696   12.99362283934091   11.13052018247296
C         7.90961539954320   11.70401103575626   10.96309587381232
H         7.24626206025737   12.51019052665647   10.68619214651694
C         7.43447500235964   10.42196847619031   11.06220897631310
H         6.39460092850184   10.20289322368112   10.86331283398592
C         8.28932251560012    9.36881497200194   11.42406206134094
C         7.87048199112627    8.02011708657802   11.53949069484050
H         6.83902845565753    7.77171662963641   11.32943960446555
C         8.76148226385528    7.06476981674002   11.91600677364315
H         8.46740044951818    6.03266144280405   12.01763485005442
C        10.10374406135865    7.42855272308540   12.20531747423587
C        11.06747236222560    6.49204305412543   12.69654481664925
C        10.95675314077527    5.12286403118159   12.93157258571206
H        10.11018346101906    4.49709731317000   12.72172439934335
C        12.17780696817139    4.72434212376983   13.49558901096092
C        12.68937689599476    3.50519682528277   13.95817028235546
H        12.08941082576875    2.60705720642477   13.90186280738256
C        13.95634600994424    3.47848198705440   14.48069610536638
H        14.37090782485827    2.54882366859872   14.84572180607588
C        14.73898541746996    4.64330547955906   14.55393704053152
H        15.73323714338591    4.57581513795282   14.97465398715824
C        14.27244706596043    5.85333189496502   14.10604909695620
H        14.87867204881507    6.74511422120654   14.16416045648033
C        12.98207234027863    5.90830954776387   13.57098962955473
C         9.93615534959543    9.00117712086119   15.14463380393443
C         8.70525785878348    9.61723314975611   14.94132069125325
H         8.65353956350123   10.68381045285684   14.77428877790061
C         7.54221467559242    8.87003277112089   14.95936611320522
H         6.59115874568497    9.35922213292574   14.80330692615508
C         7.59358375734745    7.50176348470955   15.16785717184115
H         6.68272794673836    6.92108759654258   15.17627646681649
C         8.81656348855648    6.88123167466411   15.36125216661325
H         8.86706884615700    5.81341819671244   15.51622145219187
C         9.98264915793461    7.62200291680701   15.34221164214438
H        10.93571922989170    7.12982215291963   15.47786564467474
C        11.12382338075148   11.51890184067722   15.69355772106280
C        10.47010783510986   12.43978492852614   14.87644878332090
H        10.20490456948548   12.15635818352215   13.86635136651371
C        10.17658615884302   13.70715269635787   15.34024741935671
H         9.66034494107063   14.40867294511304   14.70065084075314
C        10.55502559937042   14.08030613190999   16.61944732111852
H        10.32970878001388   15.07159078717644   16.98478823353365
C        11.23629768651277   13.18234515189327   17.42337351640793
H        11.54598477431312   13.47516722900246   18.41674532214354
C        11.52617870609210   11.90949604747799   16.96513448940201
H        12.06726526376626   11.22264801497912   17.59969303049187
C        12.53221519060920    9.09190837376625   16.20556902728685
C        13.86052909662084    8.82848238659482   15.89476835647366
H        14.23176896143469    9.09251733125085   14.91064110759420
C        14.68842272350033    8.21240734552234   16.81574054548083
H        15.71882308585673    8.00738872938384   16.56383329895201
C        14.18965301071259    7.85071966289448   18.05524717086573
H        14.83028373009989    7.36287328815709   18.77509278319565
C        12.86371689375202    8.10528470452484   18.37108716183130
H        12.47393472243193    7.81655452954919   19.33678848334611
C        12.03500619122502    8.72331095621465   17.45361059457038
H        10.99697874423164    8.91078101917260   17.69564775672909
C        15.59231189707608   10.00844081435093   12.55942186066446
C        16.57961015911676   10.90283719675095   12.95436133413063
H        16.33862193294427   11.94326168372307   13.12422502711573
C        17.87517503424890   10.45214772457832   13.13983467412027
H        18.64313571275579   11.14642833382444   13.44958931479844
C        18.19091392249663    9.11957622155723   12.93088607698235
H        19.20401109032687    8.77669688564012   13.08156130593804
C        17.20825529314452    8.22634530833850   12.53251197997320
H        17.45049272663096    7.18590957071480   12.37366827093563
C        15.91276335102151    8.66938783064490   12.34906131613134
H        15.12445751048567    7.98713386159547   12.05325516077434
C        13.67134870849665   12.09417744805844   12.96003333582799
C        13.10510730743423   13.14495850149431   12.24399261642927
H        12.84681442093302   13.00974376450399   11.20216271286488
C        12.88221300915924   14.36216423650206   12.86125678748249
H        12.44757350586125   15.17625467228579   12.29915474183089
C        13.21450975086891   14.54127668966179   14.19389071133729
H        13.04279070462116   15.49447482842626   14.67118038729459
C        13.76092815908539   13.49353578176666   14.91678728157103
H        14.01060758756336   13.62747024811716   15.95893835606180
C        13.97316071752583   12.27070049188692   14.30994317651063
H        14.38673977499458   11.44740805300355   14.87745626598391
C        13.92695887030727   10.73415930030842   10.45777943588275
C        14.86049473709491   11.59974222435374    9.89535854294896
H        15.55637844598141   12.12786840027729   10.53280317313657
C        14.89034665388016   11.77876807719859    8.52548547387591
H        15.61262400756811   12.45164401000046    8.08628620284784
C        13.99795720519508   11.09462173707743    7.71352513289704
H        14.02671939499233   11.23847720941524    6.64338909067946
C        13.07512692872097   10.22521644252105    8.27067302877662
H        12.38424224152917    9.68909084185288    7.63672790660880
C        13.04027070514151   10.04189723622675    9.64175397715221
H        12.33063205544002    9.36232493111257   10.09665441039184

