45
CSD_code = NAWGIB | q = 1 | S = 0 | Stoichiometry = C12H22CoN4O6(1+) | MND = 6
Co       -0.63705366591848    1.54427064257709    4.17329717015528
O        -0.08535161674251    2.96795113196814    3.12469255746295
O        -1.17786899935268    0.13435441827534    5.24542719740655
O         0.20453079218879    5.16187508635279    3.11251052259770
O        -0.66355299664211   -1.02115064906496    7.06168220040753
O        -3.58696395788631    2.63471911614808    4.83803807865730
O         2.30783674311365    0.44871019297196    3.49267414130948
N        -1.31402604589630    2.90028644251003    5.46007977500964
N         1.06477702495135    1.52559666683376    5.20107064415772
N         0.04845721293955    0.26768870380222    2.83095864632193
N        -2.34999313177351    1.47844847125914    3.19243995896582
C        -0.28451377643770    4.16417102957282    3.56974031916590
C        -1.25956763440510    4.21002763813083    4.77465001897475
C        -0.38781003551138    2.86903457907352    6.60737093476489
C         1.02871704738976    2.71793207992437    6.06842584647662
C         1.06679101536495    0.28640904578538    6.00887165691356
C        -0.37055538869083   -0.27330311987287    6.16789841463411
C        -0.89758936719443    0.26281718105771    1.70434386400024
C        -2.29991574454590    0.31246599583959    2.29692893989123
C        -2.70107413238028    2.63894265094804    5.91275633055747
C        -3.55653806089898    1.49274227971114    4.04130167690783
C         2.27095114365042    1.55354625477427    4.33981069022226
C         1.44143063520791    0.49984950120324    2.40341142936579
H         0.01481321053466   -0.65649509003056    3.27430997225772
H        -2.37540917097546    2.32227802021463    2.61001930919094
H        -2.24838135549084    4.44282971182376    4.36918196234539
H        -0.97521753970794    5.01525247973136    5.45574857229427
H        -0.63971527801284    2.01491473072240    7.24178985768930
H        -0.48000200062708    3.78042868672286    7.20765537392279
H         1.29882559293469    3.59519817898619    5.47452553386789
H         1.74873152828352    2.62513274220072    6.88853415886416
H         1.51908797669637    0.44045721410605    6.99105586283987
H         1.64570867492711   -0.48028097435428    5.48603368149748
H        -0.71211164134056    1.15806301860289    1.10449830523845
H        -0.76505541736052   -0.62196281086065    1.07429625607757
H        -3.05959092636602    0.37806213310144    1.51189810770176
H        -2.48521969159886   -0.58224238273091    2.89768536681076
H        -2.72212578018222    1.67914083642745    6.44483193820619
H        -3.03365460590608    3.44576847341335    6.57734124479055
H        -4.46239217075988    1.53436361587207    3.42349411935421
H        -3.55282700191947    0.57846699805067    4.64979842705573
H         2.27237007145751    2.48981840486903    3.76691623200547
H         3.17269073691938    1.49062491078030    4.96112709926102
H         1.48334201937669    1.47626790713130    1.90237264576028
H         1.77211570858792   -0.29237214456166    1.72020495864164

