51
CSD_code = NAWHEA | q = 0 | S = 0 | Stoichiometry = C22H24ClN2NiP | MND = 4
C         2.04502564235676    2.36391279055300   12.53850137417120
C         2.89848344079621    1.26891266894386   12.61772099918969
H         2.64002996915708    0.36784266354973   12.06554627624205
C         4.03477594219682    1.32700566902588   13.40136950047749
H         4.69365005866003    0.47363420339495   13.46751245655914
C         4.32360222564057    2.48399753327457   14.10764488847735
H         5.20893360815499    2.53224798478802   14.72442333864392
C         3.47713232995086    3.57829149720501   14.02829243713357
H         3.70542053004390    4.47758939323941   14.58173747064862
C         2.33928629374477    3.52501828837851   13.24349150427035
H         1.67537017874291    4.37607727051486   13.18520413834727
C        -0.61977888142919    3.33229161181135   12.10651386691474
C        -0.93020197360416    3.22217469890420   13.45995225287146
H        -0.40326113144879    2.50039822090477   14.06832440509935
C        -1.91495513315910    4.02389858522692   14.00521268583281
H        -2.15552522291269    3.94182547165946   15.05492783281103
C        -2.59753387897418    4.92819458455840   13.20583438113339
H        -3.36620474000373    5.55413145657433   13.63505042723929
C        -2.30323542705526    5.02405051523846   11.85524424115519
H        -2.84335256483704    5.72203848903566   11.23212985320365
C        -1.32129217869940    4.22283455366813   11.30074150740936
H        -1.08947863870697    4.28366709337481   10.24631760943682
C         1.26016656624439    2.98803882571370    9.86989273229776
C         1.68057103150905    4.29585018166534    9.71281797614586
H         1.58537603376220    4.99217743404408   10.53521049426367
C         2.22050762342761    4.69881657145094    8.50502564978670
H         2.54878640029856    5.71704154960863    8.36417615251186
C         2.35275509095828    3.76875889306708    7.47906984625517
H         2.79024329411012    4.07863529627348    6.53983699000542
C         1.94978307453154    2.46056222299848    7.62488264972421
H         2.08610642414922    1.77021769460324    6.80608112473479
C         1.36590698108698    2.02301312840160    8.83281313211675
C         0.99916854269739   -0.25862542138547    8.08990851749322
H         2.04136811565543   -0.60660223075785    7.98966158765355
H         0.67407311578678    0.09797732883400    7.10207584005522
C         0.08241379876668   -1.40842678583114    8.51696153022246
H        -0.94929341642962   -1.12445313982991    8.29112014005018
H         0.32134318957544   -2.33120059844164    7.96670330926248
C        -0.94637772769202   -2.47336292142471   10.40268160885411
H        -0.88929992561749   -2.62926142576032   11.47903344611265
H        -0.92317643584737   -3.44610252497496    9.89378656462770
H        -1.89140532258032   -1.97827796117520   10.18140714663240
C         1.42282256784749   -2.31796917648716   10.30745349961329
H         1.47452882860754   -2.46540176286317   11.38655006930215
H         2.27958516106576   -1.72195810113537    9.99335181711690
H         1.47420417762790   -3.29809498716405    9.81308504433455
N         0.88861546401207    0.79033537826621    9.07982689950270
N         0.17096928629198   -1.63350050152756    9.97064377686788
P         0.63931033944768    2.24644710342724   11.39476881774151
Cl       -0.36958879370806   -0.17322452188609   12.67201310657262
Ni        0.29164606579042    0.26915520846953   10.77566708287907

