57
CSD_code = NAWJEB | q = 1 | S = 0 | Stoichiometry = C21H32N3Ru(1+) | MND = 8
Ru        4.76350208279908    2.30117789713913    3.37494457834187
N         5.43383307943400    3.66257459107107    4.66252620444515
N         6.57547272182839    1.59255608116358    3.80927059307637
N         5.52658542194030    3.32810924403987    1.94045881129573
C         3.00184402972377    1.68487565553246    2.05265278284099
H         2.82838465609599    1.86527969866734    0.99859860181314
C         3.57736451381791    0.51804499143297    2.60235125231358
H         3.89402500702963   -0.34992544131680    2.04376616754664
C         3.47097907626408    0.60870620682957    4.01945205428336
H         3.66848900013398   -0.19312539198855    4.71954133207567
C         2.79976490010948    1.82297791945276    4.33047615670833
H         2.43775091980988    2.10041010450757    5.31179926011379
C         2.52464766951309    2.50352468510344    3.11869538154994
H         1.89137713542873    3.37118381093438    3.00636735912839
C         6.68731807081833    3.55132063315752    4.99413893789856
H         7.19983907974270    4.25397532866767    5.63756736807182
C         7.33121507497531    2.38299509632942    4.51373844100944
H         8.35506195705447    2.15405835441508    4.77794719640578
C         4.61457121709926    4.76683074229328    5.10407113978870
H         3.62087833187709    4.35312126831951    5.31474356242778
C         5.10230668643889    5.49770340779176    6.35795339943424
H         6.05037301088386    6.00054203272998    6.15924780089899
H         5.24754293959613    4.78306121686260    7.17070893135327
C         4.07317434620893    6.55295446402316    6.75742425841316
H         3.11868004702332    6.07204253090508    6.98011428411595
H         4.40838365238606    7.06170560369409    7.66155914516425
C         3.88916198064475    7.56383271126808    5.62979414243778
H         3.13993963368476    8.30265541120190    5.91390301029608
H         4.82945606022367    8.09158725279428    5.45833971417151
C         3.45772762547926    6.86198451838035    4.34581118042166
H         3.37509904396339    7.58689557179061    3.53496792697661
H         2.47448959320905    6.41042863656162    4.49204737487648
C         4.45876014044911    5.77826780593124    3.95531304504078
H         4.11697217151004    5.25693611243236    3.05616340599434
H         5.43298480638978    6.22569366484932    3.74481699194827
C         7.04447770105065    0.33086861136669    3.28704743162324
H         6.23951624469247   -0.39481657903764    3.46136373291192
C         8.32649908379788   -0.21887899100266    3.91728288809173
H         8.20932362678691   -0.28738170700624    5.00086353997319
H         9.16841681686730    0.43959822647923    3.69510028102879
C         8.62305463402582   -1.59858983276367    3.33272982932216
H         9.52681495554808   -1.99899914497178    3.79254297463239
H         7.80203978412749   -2.28030640256261    3.56349865651195
C         8.80664865358987   -1.50785756805582    1.82110102966861
H         8.99755048901645   -2.49958905176894    1.41109990524620
H         9.67273712984881   -0.88189978702114    1.59714966723068
C         7.56436588041252   -0.91053128342396    1.16756525869387
H         6.71718156466474   -1.58302386461492    1.31665338787013
H         7.72255130478630   -0.80641067494017    0.09340842849781
C         7.23965645693590    0.45511690768831    1.76608541099022
H         8.05889994379210    1.15194651972657    1.57335105807496
H         6.32934266282498    0.85986209584018    1.31223570594150
C         5.92955814049364    3.92161999331582    1.03448897088939
C         6.43545440297255    4.66467889603113   -0.07431051448044
H         6.99511373508118    4.01025747458563   -0.74325705258861
H         7.09327355668503    5.45682680272876    0.28392452638109
H         5.60896754841505    5.11424694243901   -0.62519690918616

