51
CSD_code = NAWJAY | q = 0 | S = 0 | Stoichiometry = C22H24BrN2NiP | MND = 4
Br        7.07195752424444    2.15070477640047    0.67038032915190
Ni        6.63874547096779    2.36854767301674    2.81627509093521
P         7.71716006578620    0.60950994823787    3.23892817460187
N         6.24042796047510    2.41297780294394    4.66309773709856
N         5.73478906600608    4.24203355315136    2.74738276045490
C         9.51515085835447    0.79841574244047    3.06397239790900
C        10.29046980637852    1.16988298566091    4.15744155673469
H         9.82135722316166    1.32044264117542    5.12040176408447
C        11.65544699456139    1.33642938324006    4.00869125608615
H        12.25682031295971    1.62056554480235    4.85999160117753
C        12.24880933798286    1.14097466795297    2.77206298905220
H        13.31502434440055    1.27186646705481    2.66007547394212
C        11.47531399444130    0.78429623682090    1.67836124258575
H        11.93599837689650    0.64167003892137    0.71238393456443
C        10.11036366221703    0.61723425937491    1.81730717208691
H         9.50071661197832    0.35772525167573    0.96294980281292
C         7.34444942086371   -0.96865473311691    2.42800254942807
C         6.06495219249685   -1.14129373104622    1.91115003196723
H         5.36681775088882   -0.31128278120537    1.94469605782191
C         5.70241556575731   -2.34965883038747    1.34756026510894
H         4.71262207271083   -2.48039219878163    0.93644826620208
C         6.61630225833835   -3.39052424624569    1.30542576112078
H         6.33766222617271   -4.33486418007882    0.86164811290239
C         7.88953541410567   -3.22284598323888    1.82603640146379
H         8.59870309053938   -4.03706532551765    1.79076712621362
C         8.25930243399737   -2.01463764231430    2.38879735716122
H         9.25581727003851   -1.87896187270528    2.78581626342082
C         7.39882092287810    0.38366352632078    4.99709786159627
C         7.80960050720411   -0.68540619560799    5.77116326608663
H         8.31427155796243   -1.52206128079127    5.30671922674813
C         7.58606375283710   -0.65723024190299    7.13552360244836
H         7.90550887334484   -1.47686196499519    7.76041297739404
C         6.96609474421926    0.45459686208950    7.69742840547087
H         6.81561832218433    0.48916057708202    8.76776854266924
C         6.53759757475639    1.51701779050716    6.93378075723649
H         6.06236416584572    2.35808519009981    7.41616970983032
C         6.70203217369251    1.49721414074171    5.53255464715332
C         5.63684779984242    3.63547651581366    5.14227128796706
H         6.39140830937885    4.31289175065603    5.57904684092747
H         4.89506620635221    3.42224596088006    5.92537477076670
C         4.91936779586017    4.30750951457035    3.97118745330598
H         3.99166055338521    3.76033652387251    3.77740179136015
H         4.66418715768309    5.35089896795948    4.21252121857497
C         4.90097472015596    4.60693420591947    1.60067603873527
H         5.49159277057438    4.57403289025421    0.68624676484358
H         4.49045660612129    5.61707585051240    1.72640677158979
H         4.07718352040970    3.90073969950855    1.49806898923156
C         6.85453090215997    5.18673344719888    2.82291840190656
H         7.43620966964116    5.13627956200464    1.90117626107452
H         7.50929380859576    4.94472494682604    3.66126098227106
H         6.48681627819168    6.21424631224912    2.95047195472191

