77
CSD_code = NAWKUU | q = 0 | S = 0 | Stoichiometry = C28H28N8O12Zr | MND = 8
Zr       15.42464852365220    0.00172620355659    5.26522152223730
O        13.47222176603189    0.60929395318480    4.85331538603676
O        14.10198093168048   -1.74267734769228    5.34852237967440
O        10.70664598703795    1.55044616183227    1.95889095737342
O        15.43656485487902   -0.60505701839096    3.26967005968520
O        15.78772720525926    1.74648050161530    3.99035376034937
O        13.17486696005647   -1.54526204480484   -0.03381091228561
N        12.77824658766218   -0.33388020319997    4.20436083336658
N        11.89433080611280    2.35057103472725    3.70493717250288
H        12.54568938097633    2.12307636696593    4.45290206096497
N        14.94535503862545    0.33816575551980    2.45648970795835
N        14.63420019619821   -2.34676277451128    1.49165732401782
H        15.23505475256091   -2.11925510305193    2.28069408476326
C        13.15493533978912   -1.62450492199993    4.52497431247776
C        12.43757585246282   -2.67117227887545    3.90705112105820
H        12.70675083080052   -3.67856199938352    4.18090913255852
C        11.45786051814880   -2.39711873933450    2.98496430362534
H        10.92847514036552   -3.19978718032301    2.49653061666484
C        11.15337922361073   -1.07621275260672    2.67204919091401
H        10.40965344153690   -0.81671297559198    1.93721314161067
C        11.81812004715702   -0.04167907101888    3.30229049913389
C        11.43053355494117    1.36561512451709    2.92083914871207
C        11.57799000826119    3.73320514128374    3.45331320403962
H        12.48717599272135    4.30277274070348    3.25781094514519
H        11.06573449352584    4.16525253049815    4.31459181805114
H        10.92485516090672    3.77618994592226    2.58279403983056
C        15.18012311133802    1.62874135420616    2.89221525829160
C        14.72564612582411    2.67563282458059    2.06189611907644
H        14.93775455206351    3.68289506806756    2.38247626771978
C        14.02786765669478    2.40180545740039    0.91151434240829
H        13.66085635793280    3.20450317743366    0.29175885641872
C        13.78424535270793    1.08099026969548    0.54885365197527
H        13.21969788064593    0.82174146309220   -0.33120999116154
C        14.26189167055753    0.04623699815980    1.33023111937933
C        13.96657591417151   -1.36093760202974    0.87327089804131
C        14.45036078110334   -3.72949810148598    1.13221754005739
H        13.70424406109009   -3.77555113611857    0.34021506517110
H        14.10819808942544   -4.30330151084945    1.99372082782106
H        15.38865476789702   -4.15465664595400    0.77158545107934
O        17.37707201696093    0.60930643182885    5.67715797389762
O        16.74731601333453   -1.74266152114010    5.18193842559971
O        20.14279225167210    1.55043211134728    8.57147593254123
O        15.41272918948369   -0.60504167641855    7.26077641183931
O        15.06157443111896    1.74649726437381    6.54008159699719
O        17.67442775817102   -1.54523994871032   10.56425463473669
N        18.07105396446309   -0.33386946345991    6.32610312383120
N        18.95494915508595    2.35058233775117    6.82554990659045
H        18.30349858177687    2.12310150721003    6.07766958848513
N        15.90393808867153    0.33818377316311    8.07395352313096
N        16.21508151827929   -2.34673976074193    9.03879768545956
H        15.61423071314372   -2.11923689228793    8.24975658143808
C        17.69436130637025   -1.62449268400143    6.00548854676314
C        18.41171936267029   -2.67116400693756    6.62340661531876
H        18.14253490030745   -3.67855212841930    6.34955258610204
C        19.39144810103056   -2.39711627486811    7.54548148908930
H        19.92083177944847   -3.19978699349546    8.03391390377044
C        19.69594769489713   -1.07621155677622    7.85838284682326
H        20.43968484425314   -0.81671346835936    8.59320831603827
C        19.03120290197295   -0.04167438182418    7.22815042578368
C        19.41882427875064    1.36561371863676    7.60958093304792
C        19.27133405224505    3.73317623006085    7.07714624402133
H        18.36227335779219    4.30275810194226    7.27296657079023
H        19.78331066562182    4.16533686892465    6.21581276920587
H        19.92470981814171    3.77616434784729    7.94743309814244
C        15.66917075955022    1.62875851299507    7.63822390922876
C        16.12364119360511    2.67565233056433    8.46854374995802
H        15.91152881802765    3.68291317642719    8.14796151089214
C        16.82141740608809    2.40182839144224    9.61892739776343
H        17.18842172755526    3.20452876711956   10.23868366059550
C        17.06504483325815    1.08101431770578    9.98158916261838
H        17.62959299791335    0.82176893015741   10.86165328681419
C        16.58740104492577    0.04625877082641    9.20021285795929
C        16.88271690361227   -1.36091544831049    9.65717382311472
C        16.39891294429562   -3.72947537490763    9.39824359169704
H        17.14497915805413   -3.77552131151763   10.19029571672861
H        16.74114010228956   -4.30327331688702    8.53675996509425
H        15.46059644873144   -4.15464234699177    9.75881042138579

