93
CSD_code = NAWLOM | q = 0 | S = 0 | Stoichiometry = C38H36BF15Si2Zr | MND = 14
Zr        4.30774048328554    9.06712885895511    4.51720067536564
C         2.75633356754536    9.99659054381672    6.18288260207128
C         3.68428915865607   11.00876595022958    5.81621787932648
H         3.42470003697601   11.96507060120903    5.37982208566047
C         4.98539416738821   10.65139371746703    6.26284573798717
C         4.84751248863477    9.40130966664894    6.93341364362022
H         5.63180075572755    8.91073886652313    7.49689644136361
C         3.50292181489582    9.00419484281588    6.87921019296674
H         3.07726380760488    8.14728871864806    7.38909332158008
Si        0.87837131204959   10.13901965144664    6.07364991028123
C         0.05461824818622    9.01506016153363    4.75338973797545
H        -0.30550282075523    8.09457064457298    5.19956845839360
H         0.71346887837931    8.75029452859194    3.93025410331771
H        -0.80823059105795    9.51817356738270    4.32757670627089
C         0.14735992528867    9.70454657597217    7.78227860766605
H         0.60062024050819   10.29335254393689    8.57346954644814
H         0.29549678050627    8.65690648810379    8.02268792835716
H        -0.92088047290689    9.89384808143224    7.80037853672420
C         0.47805894576405   11.95933878244592    5.64450940227071
H         0.92818496804905   12.64460901640279    6.35556516551898
H        -0.59407476983943   12.12428341525716    5.66873657401093
H         0.82447221155178   12.23522734280648    4.65273157557926
Si        6.45520113951602   11.82498257132873    6.34900669128368
C         8.12070783335239   10.88752306173637    6.37604007880664
H         8.90748789009811   11.53921451912552    6.74252201878696
H         8.42138703008245   10.54537546928828    5.39094128119614
H         8.08747474933987   10.02450402933753    7.03332160830929
C         6.36456812968744   12.99981905985125    4.84241167780137
H         7.33610361439542   13.43141940845161    4.62494941841215
H         5.68482480598208   13.82416120412408    5.03357561075226
H         6.01537678288088   12.48991556062243    3.94634164602629
C         6.30447599919392   12.84315943227436    7.95936704190710
H         5.34372298861448   13.34461325126642    8.02340333895796
H         7.07735398141993   13.60320509249975    8.01259193414201
H         6.40250414944993   12.21240013393881    8.83729094252276
C         6.33316163197868    9.20688720650551    3.65113261682329
H         7.06055577947102    8.82982010285058    4.39356167111601
H         6.59848970320327   10.26841969010724    3.50028834504776
C         6.60769441990870    8.50887991625423    2.33621954384132
C         7.78964259634428    9.04177301484285    1.55491889735402
H         8.54189221436306    8.26525229007304    1.41341470218468
H         8.25822880029861    9.87507560075231    2.07266830299074
H         7.48387008029748    9.38276468806987    0.56631526125117
C         5.90272207432983    7.48754875197152    1.82777594250450
C         6.22758882580445    6.88724860294408    0.48651873458513
H         5.93883530971082    7.56892403466515   -0.31491708284385
H         5.69310914958236    5.95158292726981    0.35033736598342
H         7.29078736228042    6.68902038120715    0.37804432933559
C         4.68408172735590    6.90657652572055    2.50099258570527
H         3.87419045029016    6.89232978757973    1.76959978851349
H         4.41316903669499    7.62278502040528    3.29112899333386
C         4.20934417957225   11.93894009540363    2.19196284888600
H         3.63740795774026   12.55176566769073    2.87316271021624
H         4.93839573965761   12.44890781368420    1.58644508827031
C         3.98865387068750   10.62521774654658    2.08225926817642
H         4.54937297368470   10.06421092173603    1.33429908543541
C         3.02195880599005    9.86471281010255    2.88292222978897
H         2.57251669077300    9.05539345920037    2.29010949167726
H         2.23397475702428   10.52927868873961    3.25972341504778
B         4.90385846146924    5.42295437209021    3.21798318675570
C         4.63912150458346    4.17814499332047    2.18823034712823
C         5.42562245455524    3.03958738798353    2.02081098068635
C         5.11727326447498    2.02973352990014    1.11222721184624
C         3.95995253979752    2.10531746564570    0.34927394896807
C         3.10467201614604    3.18159288097331    0.54717926155905
C         3.45109497045142    4.17033096547734    1.45815067076091
F         6.50407849122941    2.83259097681999    2.78279195939238
F         5.92679569381605    0.97398604024244    0.98734440993864
F         3.65504931715130    1.14665400543652   -0.52878899689354
F         1.94826954316420    3.25823661200750   -0.12389199771089
F         2.54110303685394    5.14821799301693    1.65835703950448
C         6.39199381756822    5.59902829531355    3.86296438041761
C         6.49544391452739    6.35536153738132    5.01948620793486
C         7.67612500039692    6.67302567218786    5.67053942677913
C         8.87833524503034    6.23972932949800    5.13025045669551
C         8.84171164502495    5.56854833788307    3.91079353276027
C         7.62657180676291    5.28572102637576    3.28996117735509
F         5.34930661901668    6.98171086838291    5.52768386829089
F         7.62831538894554    7.44557089704026    6.76574555560660
F        10.03729152250773    6.51790776709835    5.72753637922603
F         9.98648891605924    5.22978035849850    3.31680108462259
F         7.69537929635345    4.76885044522147    2.06504595610943
C         3.83289229747850    5.10014952983548    4.45669482916778
C         3.86595625942290    3.83989858741690    5.06493087589387
C         2.99122889781720    3.42944960294265    6.06743855816568
C         2.02226761663221    4.30292299561843    6.54900079871196
C         1.97463184391878    5.57785556114487    6.00519832334196
C         2.85402779575212    5.92790699638233    4.98811745341526
F         4.79660392825541    2.95235416197638    4.70985958036737
F         3.09452675377398    2.20429995878519    6.58080234114607
F         1.18611955224021    3.94113271210932    7.52010173874960
F         1.11605977605201    6.49045619711487    6.47046899914651
F         2.73287844556368    7.25817083459683    4.57578419710069

