80
CSD_code = NAWMOO | q = 0 | S = 0 | Stoichiometry = C31H44Cl2N2Pd | MND = 4
Pd        0.93797175986524   11.62584011875248    3.84662950937274
Cl       -0.17338156401431    9.70160629547392    3.54477830615355
Cl        2.61034851433979   10.84726321849821    2.58164395061606
N        -0.47463563594964   12.24719660266115    5.11427117749813
N         1.77318365045571   13.48827538572995    3.77673568028748
C        -1.04977846122455   11.32319299008942    6.01640919249075
C        -2.39954516467025   10.96300541792580    5.86649245912012
C        -2.92321132500738    9.99781729362474    6.71612636815060
H        -3.95486142451067    9.70327113559818    6.60343973851694
C        -2.15311202914509    9.40094037105271    7.69197647241118
H        -2.58068651768719    8.64801142890147    8.33667644191952
C        -0.82949884967887    9.76794639065004    7.83501150812913
H        -0.22781994171150    9.29507690875792    8.59446904712998
C        -0.26323810655890   10.73085808692925    7.01484162280527
C        -3.28845174064295   11.52078390714118    4.77982769421710
H        -2.72533617951989   12.24857323339869    4.19306868536497
C        -3.71445207336182   10.40446641865733    3.82366843787902
H        -2.83040144614355    9.90436606245413    3.43460110082772
H        -4.28197334773537   10.81848296908348    2.99227905305200
H        -4.33312037770622    9.66779597898772    4.32860249719133
C        -4.50316994394493   12.23929914123504    5.37406654611102
H        -5.14138221520919   11.54396046796286    5.91253279416369
H        -5.09335482699905   12.69552402844261    4.58137197157091
H        -4.19335822261698   13.01912836158671    6.06879821948169
C         1.18519708931463   11.11979024460751    7.19932040903471
H         1.34492109627946   12.08344180088024    6.69587212250906
C         2.08444174364205   10.05359355320384    6.55616164610508
H         3.13244506439445   10.26514573879621    6.75734639590898
H         1.93433832177994   10.02016244018553    5.46445566695824
H         1.84487089336814    9.07226095111931    6.95963333555458
C         1.55085305293666   11.31409672114020    8.67282687029656
H         1.58162342406637   10.36563092382511    9.20139490417556
H         0.83120132262104   11.96359462688500    9.16747281233092
H         2.53607965393884   11.76879876500550    8.75091502781545
C        -0.90879668437663   13.44110363936122    5.05190221816581
H        -1.62385603017892   13.80910846412231    5.78901264923972
C        -0.50305298917083   14.39688928110803    3.96592336334628
C         0.98611643814906   14.48790127757399    3.79515760141052
H         1.37240202485193   15.48756944436245    3.58036744307253
C        -1.10434427820928   13.93798443012937    2.59941472163866
H        -0.49942868033758   14.36500720327471    1.79883145894139
H        -1.07958622634410   12.84063443123436    2.49900266598262
C        -2.51894923826375   14.53380474125600    2.54131058594573
H        -2.66677285610295   15.04765615453280    1.59203300780257
H        -3.28330320233205   13.76219905351824    2.61623548452615
C        -2.62104590986465   15.52070221062072    3.71655888470145
H        -3.20064744772270   15.07966661176856    4.52788868574420
H        -3.10930015265984   16.45015067955638    3.42916745287565
C        -1.17985693261883   15.75697058797448    4.16930792456263
H        -1.11541310571526   16.10473883335603    5.20025139267890
H        -0.70572675850912   16.50040649999172    3.52665668492358
C         3.11144567609171   13.73200483042493    3.36575009047288
C         3.37079881031765   14.03626240713584    2.02217614476409
C         4.66522520549337   14.39289483972135    1.67091953101696
H         4.88416326723074   14.64652588358352    0.64577205849354
C         5.67803783595413   14.42825713047507    2.60797293675632
H         6.67438989950558   14.72545496607762    2.31683004401386
C         5.42309161676037   14.04876746485026    3.91200807500558
H         6.22952042128531   14.03725739002778    4.62665659392246
C         4.14559099209312   13.68442728941245    4.30672144629276
C         2.30970992564497   13.90901450990218    0.95149281838505
H         1.44347567927790   13.38592426711262    1.37910614928870
C         2.80332511740449   13.03357927611237   -0.20255657896648
H         3.62070030937659   13.50130823452172   -0.74432640454967
H         1.98835153970973   12.85534086617382   -0.90085263124448
H         3.13837336319860   12.07711041980500    0.18917639660781
C         1.87836874945019   15.28361733887165    0.43332864493501
H         1.48769054873065   15.90976914237866    1.23440385787229
H         1.10899078993979   15.17463781436371   -0.32869252584255
H         2.72609839511836   15.80020996204557   -0.01102449330698
C         3.83333379841230   13.23313105559159    5.71186112871036
H         3.05560433973152   12.46167860564266    5.61075384656236
C         5.02877369075255   12.59757348149265    6.41759018502067
H         5.78413755099972   13.33988243518521    6.66512916350903
H         5.47550696115647   11.83217604931559    5.78826544032034
H         4.70410299328169   12.13503822262286    7.34751493563028
C         3.28766478950147   14.39733598787311    6.54582716491244
H         3.06140407201768   14.06594819109120    7.55707738108693
H         2.37817792895471   14.80693448065014    6.10866295975731
H         4.02750156897645   15.19364593435849    6.60281574981713

