120
CSD_code = NAWMAC | q = 1 | S = 0 | Stoichiometry = C63H51N2OP2Ru(1+) | MND = 6
Ru        5.53148329829823    7.73750427812562   14.35637670417786
P         3.20652413722800    7.48468999354309   14.14389134224923
P         7.88778265026911    7.84563066076010   14.39320209242937
N         5.51212371867656    9.44501598741833   13.23954435850762
O         5.28747544951040    8.88509885740116   17.10860215209849
N         5.56717912212077    6.90735451603032   12.44838927096098
C         5.40354532810467    8.49569527325765   16.03369998724119
C         5.49995491343688    7.81772526810997   11.52124413234710
C         5.01698060112653   11.18987505762860   14.84744388991481
H         4.26275901836533   10.55851662307375   15.29664423763436
C         5.43006895298733    9.21209980973386   11.96060924256658
C         1.85181971722565    7.41302167864499   17.95307144159690
H         2.21063176741222    7.01437956651383   18.88964626352740
C         2.50436707808233    5.85459184151557   13.71899541592137
C         0.91563070141173    8.41662353746286   15.53695870882243
H         0.53533151600160    8.79330861761411   14.59808262930196
C         5.71179006697495   10.73858034890008   13.72633021571661
C         8.63646599907687    7.28000672680967   12.82951972470699
C         5.28705115505041   10.05082556670284   10.77942539037201
C         5.54853569708970    5.54070121879343   12.15715599048557
C         6.36574289901266    4.67289557554621   12.88329511223434
H         7.02456079662308    5.07790223128709   13.63835002160576
C         2.16402833518811    7.80697864182574   15.60127896086212
C         5.55687320232538    7.81768097469604   10.06161854483805
C         5.38540413969391    9.17025287373706    9.67407427465159
C         5.04266203802690   11.38302830692208   10.53776871377789
H         4.93100456854417   12.09649778044261   11.33999107199880
C         8.81718979321926    6.95367095733526   15.67837011217462
C         3.17688993374078    4.69474957534739   14.08389725992366
H         4.14112784344790    4.76813022440392   14.56661107031282
C         5.27624335680658   12.43693688839189   15.37561543086820
H         4.72163262946441   12.77002255850450   16.24025116755931
C         6.68063503887245   11.57109684625511   13.16160586828554
H         7.25527235060992   11.22930177977501   12.31238857758027
C         5.53684816525456    8.60191543154271    7.36060651225471
H         5.51298712997750    8.87399067052849    6.31612050807739
C         8.64717942661945    9.49178114726550   14.65033038201992
C         6.32643642205483    3.31488001667535   12.65181804545991
H         6.97601872210452    2.66307307188362   13.21708553676260
C         2.61873701285479    7.28608110835189   16.81054616385289
H         3.57619695390115    6.77801090044365   16.83835777519857
C         0.15529095835966    8.54394094571388   16.68625879187407
H        -0.80927031695199    9.02657506395861   16.63617379482187
C         5.77948901895738    7.30221292481819    7.73446076033339
H         5.95894311478900    6.55902044434985    6.97197775705688
C         6.94562116890990   12.80791857373361   13.71048905373747
H         7.71303433433798   13.42597717557825   13.26884209941205
C         8.16009312395822    6.31009239940962   16.71899276553794
H         7.07701759554418    6.29946984999310   16.73689044009702
C         1.23904902529501    5.76395887973100   13.14253955814638
H         0.68863595368758    6.66095390468220   12.89443342434922
C         0.62283534895844    8.05121878919288   17.89331821639890
H         0.02509171155904    8.15689780544456   18.78562610721611
C        10.21121428985456    6.98724311850944   15.65275589903764
H        10.72235678155903    7.50458732258834   14.85184547098148
C         4.61410200982369    3.63126631361122   11.02076583385610
H         3.90616682002804    3.23116208171162   10.30991272644515
C         4.66629551904070    4.99475756159398   11.22307321107804
H         3.98815602023168    5.63659123777242   10.68089915734985
C         2.33710418073700    9.93190992257243   13.11107397860820
H         2.40835908193574   10.29272331602260   14.12758198234194
C         2.57079747486570    8.58534217308051   12.83672606575442
C         5.78787932632156    6.88463115712171    9.07652787389532
H         5.98070829773766    5.84763250215456    9.30494861197517
C         5.33455428608547    9.59594774527118    8.34324470676374
C         9.26800057803557    6.04499157865271   12.71616470253526
H         9.42175277359719    5.43491873429466   13.59534910269731
C         6.24881919651455   13.26481655019715   14.82360998671650
C        10.93360080519456    6.36075727768320   16.64919996377972
H        12.01266200485262    6.38349107186270   16.62517582515817
C         2.47962954925874    8.14088407334388   11.51971643587920
H         2.64606793407531    7.09628331039952   11.29743166272029
C         8.89076453564540    5.68782195791829   17.71727303140850
H         8.37789603675417    5.18777451682096   18.52482057469771
C         2.61651495075326    3.45631474689792   13.82726939722535
H         3.14960459648121    2.56005971844866   14.10589958609173
C         8.79224924650342   11.41569253714023   16.09296436729989
H         8.46064591176953   11.94908670922144   16.97060580716477
C         5.44853035678882    2.76727232233784   11.72096441811279
C         1.99977414538162   10.80473929607020   12.09372868483331
H         1.80928378539702   11.84299148353841   12.32122548349851
C         8.45791570289338    8.05793791854676   11.68562291000574
H         7.98550962216284    9.02881150894118   11.76577835071865
C         9.65839136598806   10.02050410334782   13.85607568226065
H        10.02198509903950    9.48088688454072   12.99323677435532
C         8.23204905679815   10.19295573663331   15.77999805884957
H         7.47366555482815    9.76602575866660   16.42018371115281
C         6.52864090161993   14.61177410464902   15.40643236806345
H         5.85435545790557   15.35157010825148   14.97362664035575
H         7.54825864779570   14.92298170175579   15.19453987618169
H         6.37177019298093   14.60931503375685   16.48223420890399
C        10.27457408023810    5.70969617161274   17.68178519948113
H        10.84289001786918    5.22419816861189   18.46033372736954
C         4.93934132458565   11.81765949417158    9.20536180931128
H         4.74445692323615   12.86465606608836    9.02718395303232
C         0.68514998910481    4.52387778180704   12.88736449940163
H        -0.29243664720486    4.45842958345085   12.43360959681280
C         2.14652847477598    9.01762744576049   10.50283566997282
H         2.07761292199104    8.65854064486449    9.48650756372804
C         5.09584595336137   10.97265448871260    8.13364318004758
H         5.03565860605859   11.35329717696361    7.12524177227124
C         1.37603456764993    3.36876624257641   13.21930148365100
H         0.93910767374908    2.40309011529231   13.01525895649205
C         5.40468246812583    1.29348638343755   11.47964578371164
H         6.11747523669265    1.02433298865728   10.69936912598337
H         4.41633432694996    0.98179539635947   11.15129073275732
H         5.67272984740130    0.74376942346832   12.37843022894345
C         9.70917271059120    5.60049880616014   11.48241824477427
H        10.20206951448230    4.64329200676442   11.40507946157256
C         9.78195477907620   11.94974722017026   15.28366849954168
H        10.22249037073290   12.90501338873723   15.52523064806610
C        10.21655884173577   11.24708671932781   14.17340505904819
H        11.00128548733459   11.65011453811604   13.55037829313783
C         1.90896680663313   10.35168922666047   10.78684462548494
H         1.65209059717075   11.03573265909925    9.99271270858560
C         9.51891566858763    6.37547200732276   10.35033809293478
H         9.85946014492003    6.02316066751597    9.38879263230782
C         8.89808610352335    7.60968196604061   10.45452024273608
H         8.75434634709815    8.22296538910308    9.57661147566266
H         5.56898208234158    6.37295489112618   15.04013653266703

