79
CSD_code = NAWMON | q = 0 | S = 0 | Stoichiometry = C36H42Ti | MND = 12
C        -8.09600608581898    2.75595763497856   26.80874458009898
C        -8.67084537070188    2.62845045326606   28.10230446238250
C        -9.61590598350252    1.57032507386566   28.06453812231778
C        -9.60351438272365    1.01615729343500   26.75518490952587
C        -8.67446192138021    1.76050168790911   25.97596843209088
C        -8.59341408841921    1.74171016495655   24.47678987246998
H        -8.83342475603233    0.75963986226505   24.07244791530587
H        -7.60476133990493    2.03282922545913   24.12580786455853
H        -9.31789296420904    2.45396607683306   24.07147016860700
C        -6.38597249114484   -1.46708569787496   27.79581298636364
C        -6.15270498976204   -0.77239975844771   29.01402239534997
C        -7.40626934510864   -0.59685144619380   29.66552213585059
C        -8.40639518017052   -1.22062004318273   28.87451525761342
C        -7.78272317462409   -1.71875247553086   27.69981199280616
C        -8.40814951145397   -2.63512649827085   26.68781040706518
H        -9.49349843115087   -2.62274087612559   26.75609500848324
H        -8.07452553138618   -3.66109844330278   26.86469290472796
H        -8.11982352134881   -2.36855513621172   25.66936636268873
C        -6.38338279260465    0.40316289090541   25.95098501784989
H        -6.82840743079918   -0.27258085789697   25.20871722803888
C        -5.22257345018074    0.97270984591758   25.61775942115066
H        -4.73112956496447    1.63306493788186   26.33040529062281
C        -4.48475399393199    0.80859978762146   24.36432055728833
C        -4.93783372265346    0.02857486227057   23.29797227379114
H        -5.87966017564836   -0.49544530485680   23.37467620802008
C        -4.20124384061880   -0.08651542415492   22.13576719998600
H        -4.57290392863739   -0.69666676679686   21.32414848822614
C        -2.99128635938537    0.57464013088191   22.00312334557050
H        -2.41728619157592    0.48324429602885   21.09267337927997
C        -2.52581014462455    1.35459626804051   23.04889556866577
H        -1.58331266110437    1.87564560773482   22.95536812402677
C        -3.26259437062932    1.46919680388986   24.21097519274011
H        -2.89148176597567    2.07990984217557   25.02286910326071
C        -7.18664982725244    3.84523645430733   26.32911079469700
H        -6.66834814772767    4.31639690311829   27.16142810913388
H        -7.76607146425177    4.60820137775579   25.80370027939238
H        -6.44215887552517    3.44696989798740   25.63933364687113
C        -5.31390744441834   -2.12262146757167   26.97568096197124
H        -4.45820504178340   -1.46253958180217   26.84077350449548
H        -5.68027701305371   -2.41741363464966   25.99487374591572
H        -4.97008596541613   -3.02339526963253   27.49208193498216
C       -10.62621864597937    0.09458419632796   26.15423627009234
H       -11.16995526961919   -0.46365520932880   26.91335979715908
H       -10.17232318616817   -0.61390200714995   25.46106329651162
H       -11.35741260827261    0.68225405668373   25.59183184074466
C        -8.52750677281065    3.58907582424204   29.24584560822771
H        -7.58904068068358    4.13575893187815   29.18641482676011
H        -8.56202629123064    3.07037337753239   30.20383536600717
H        -9.34784820343976    4.31197753882041   29.22443246743767
C        -4.79655470952439   -0.56570875561977   29.62039226216070
H        -4.83075919429486    0.15336105991757   30.43498289530561
H        -4.08665539602074   -0.20852637635615   28.87541594505831
H        -4.42897033412850   -1.51760896091533   30.01381727099166
C        -7.56102897762143   -0.01750283789397   31.04229235373194
H        -7.03991723587857    0.94002441610079   31.11444598390186
H        -7.13035225282697   -0.69322391191686   31.78545848866215
H        -8.60796092461487    0.13574375341885   31.29896238859102
C        -9.74764391004734   -1.68021203418298   29.36937811374164
H       -10.09073588996030   -1.09773908192039   30.22002676180012
H        -9.65433656600324   -2.71922154556313   29.69947298365681
H       -10.51294576915972   -1.65618775757580   28.59636231414051
C        -4.36518233841345    3.50430765940340   29.58963497711727
C        -4.32273486757012    3.68210240957162   30.97434667711251
H        -4.99887080978389    3.11742836978356   31.60217532812118
C        -3.42830838741982    4.57196847778394   31.53557250704674
H        -3.40273149973364    4.70309890255997   32.60845585920516
C        -2.56339503693533    5.29564620613254   30.73023248848159
H        -1.86516122239057    5.99118403372294   31.17264493394824
C        -2.59755136177792    5.12445606255405   29.35512397797297
H        -1.92427362112289    5.68867606649207   28.72506087222268
C        -3.49011003781989    4.23869811883423   28.78525867424122
H        -3.52295682324639    4.10559821587233   27.71272836872412
C        -5.28818245421882    2.60128115376926   29.00411988214871
C        -6.08175822538084    1.83163787521774   28.49744757612678
C       -10.68326688024712    1.41006248740575   29.10828178047061
H       -11.33619507751406    0.56714266109551   28.90007636276873
H       -11.30145708094787    2.31228836058485   29.11580064127748
H       -10.26701988671049    1.29865875053457   30.10941165299541
Ti       -7.46159832884624    0.63442081534462   27.66925505104080

