80
CSD_code = NAWMII | q = 0 | S = 0 | Stoichiometry = C31H44Cl2N2Pd | MND = 4
Pd        2.55223013134543    4.31367903328870    7.12954070692943
Cl        2.30575013098363    4.18777300628159    4.90702845749186
Cl        4.61541617259108    5.10008537716000    6.76468082230317
N         0.84575222882017    3.25546591038886    7.44892631334276
N         2.62418949137948    4.74459745999657    9.07033049213858
C         0.54182263169935    2.69908731286323    8.55018736295641
H        -0.23541407692566    1.92919831866152    8.56416222446250
C         1.22556439960526    2.89911840268778    9.86869196232638
C         1.91941671598949    4.22145729410780    9.99064657887614
H         1.84222185289507    4.72411399373858   10.95712066315294
C         0.24961252109249    2.65942136627602   11.04695224980761
H         0.31235404281673    3.48663615394566   11.75460540679456
H        -0.78424513562117    2.60257503133351   10.70624393323928
C         0.69861005750745    1.36084628895158   11.72343899917684
H         0.46005048669356    1.34990623561385   12.78526291399707
H         0.21311713083127    0.50283848489933   11.25585487446735
C         2.19867475772704    1.31266144655897   11.45162488442070
H         2.62125769535251    0.32115710866712   11.60386690323423
H         2.72335173955983    2.01626950889834   12.09886994293258
C         2.28705757807146    1.75532113752665    9.99732015642622
H         2.00362067614853    0.92543965258098    9.34846378018269
H         3.27759966348793    2.09827928422931    9.69777483638042
C         0.15023232372105    2.78583903007045    6.30064140291004
C         0.55212112192376    1.58656304261719    5.70291729383511
C        -0.21359176795397    1.09898057375024    4.65378506169558
H         0.06405431053615    0.17100106127884    4.17888096554733
C        -1.32556008014185    1.78554312540948    4.20499069972670
H        -1.91542633139529    1.38290711884123    3.39515507892486
C        -1.66546050390800    3.00307557944088    4.76459833134916
H        -2.51103065663259    3.54723682437227    4.37629052790471
C        -0.92744213267854    3.52840977899631    5.81384523033256
C         1.81830318938472    0.87593209959226    6.13316369435366
H         2.37922039625537    1.52678235179961    6.83109064573664
C         1.49038698522941   -0.44621291999387    6.83136112738783
H         0.82386121794833   -0.29321567265852    7.67952301962455
H         2.40200050057210   -0.92363832294514    7.18509783226388
H         0.99714413439356   -1.12398997170987    6.13839163411585
C         2.74054301006252    0.64063783810269    4.93484204052314
H         2.94255307403645    1.58895814105270    4.44315170970873
H         2.29545524443452   -0.04021031640575    4.21444902168078
H         3.68344307846102    0.21597718928301    5.27294776327053
C        -1.22983846734517    4.87178812931973    6.43633042840070
H        -0.27408247059786    5.26610220522216    6.81351388237749
C        -2.19837317388502    4.71930798543490    7.61328912929018
H        -2.41925355882268    5.69203297823263    8.04832508686360
H        -1.77515134939434    4.08491236855163    8.39094018246899
H        -3.13150288364901    4.27227902375234    7.27644554548230
C        -1.77436130464044    5.87707079844867    5.42427410495566
H        -1.81845262886213    6.86719473207863    5.87395995405561
H        -2.77931572618036    5.61323517783649    5.10445135994807
H        -1.12430163346222    5.91812052679497    4.55432592247302
C         3.31268738757170    5.95398839637212    9.35892084206074
C         4.60455548789377    5.87602231702155    9.89199990956608
C         5.25957914362048    7.05705234712422   10.20516563565748
H         6.25091787840528    7.02021354912835   10.62705908549706
C         4.66447765470121    8.28186457443957    9.97294908486421
H         5.19169746424374    9.19266029234072   10.21426950756739
C         3.40310107711451    8.34305691242299    9.41383958848687
H         2.95934725320280    9.30503800022160    9.21282680651177
C         2.69954112492809    7.18648371889266    9.10760692012970
C         5.26667219723260    4.53400343731656   10.10662931676819
H         4.73749875692673    3.79666408473854    9.48957179041097
C         5.16623111572169    4.12432144515036   11.57833088758282
H         4.12754290805479    4.08495236430365   11.90304658927362
H         5.68895901006088    4.84445746756468   12.20415003063376
H         5.61534583381747    3.14499122888610   11.73061089404230
C         6.72110032711876    4.53173713745647    9.63861121233812
H         6.77044899286463    4.89384634113057    8.61523563481701
H         7.11425720579754    3.51764215621743    9.66822333152893
H         7.34849323439478    5.15566421103431   10.26958651948241
C         1.34063808451187    7.26339522981409    8.44595080349393
H         0.82558948309951    6.29907488776817    8.57175842023316
C         0.44347697012917    8.33851460880935    9.06173339520763
H         0.40864985016506    8.23927560033126   10.14481673176039
H        -0.56807610883890    8.23970284895914    8.67365442407548
H         0.79790958103543    9.33551098201151    8.81660214788696
C         1.54225635664042    7.51831526879358    6.94492634623928
H         2.10135345401484    6.68823006255329    6.48173573939105
H         2.11089380558207    8.43322547449862    6.79450325777146
H         0.58266966055373    7.61774676945114    6.44191200420557

