43
CSD_code = NAWREI | q = 0 | S = 0 | Stoichiometry = C16H23BCl2Zr | MND = 13
Zr        8.69363303309961    2.97187907075188    3.86695512896008
Cl        6.35283145605518    3.24630264121749    3.95243531943425
Cl        8.37082529472567    0.65407690184371    4.09361639248308
C        10.35158774332047    4.33697907236691    5.05522375378999
C         9.25515537025572    5.19829549099603    5.24225652838538
C         8.11760888452905    4.80497420992803    5.94689953937930
C         8.02349512685949    3.52156395071869    6.50765972751330
C         9.04053321904647    2.58362439497271    6.35965033521795
C        11.48770658088531    1.84624072870745    5.39266643052360
C         8.43695547192206    2.56972685173050    1.51707939775045
C         8.26762887774005    3.97930062034836    1.66312014776602
C         9.52365954119585    4.53901814533195    2.02096878165787
C        10.47672249863753    3.48437946266119    2.08634906633690
C         9.80747657091327    2.26664359799368    1.78215738289783
C         7.38056567956349    1.59596294081659    1.07128717798783
C         7.04058800839213    4.77557935534594    1.31433005847768
C         9.80469832095695    6.01598464582470    2.05320216354177
C        11.97088240145770    3.63429836179926    2.17938129097153
C        10.46963377866414    0.93276859115732    1.56911443900030
B        10.32912970487686    2.93107048266889    5.62565766053945
H        11.23997710080256    4.79055022149116    4.61798359596317
H         9.31926175917300    6.23789690313026    4.92570206545062
H         7.31591068423042    5.51575360936993    6.11200490511879
H         7.14134366544805    3.29000318891847    7.10052765300607
H         8.89818130619275    1.63245041032595    6.87396744967240
H        11.60873901902939    1.19135049258640    6.25420198957001
H        12.46372015539208    2.28664703938584    5.18997199293448
H        11.22942166561856    1.19549369951267    4.54801396837266
H         7.17830102217641    1.71237676415681    0.00424920810138
H         6.44797994005582    1.76043924400958    1.61729159401166
H         7.70635071836406    0.57239380606534    1.25058164894492
H         6.79751180138477    5.49759587268187    2.09687910864993
H         6.18238588653804    4.12133615014179    1.18015871824282
H         7.20519789119244    5.32432316161158    0.38402867762958
H        10.00133999814632    6.37741302883682    1.04084596722418
H        10.67492283669295    6.25431656634559    2.66212323568869
H         8.94629767547931    6.56731870833327    2.43687875428046
H        12.39869075088373    3.00162562654753    2.95661348846542
H        12.24964807786660    4.66623320050510    2.37868419114359
H        12.42607809953956    3.34907644575675    1.22894704763924
H        10.49412055851990    0.69485825060543    0.50348447027039
H         9.92893570486785    0.13477010411469    2.08032250092583
H        11.49476611931092    0.94850798837999    1.93472704611283

