54
CSD_code = NAWTIR | q = 1 | S = 0 | Stoichiometry = C26H20N5O2Ru(1+) | MND = 6
Ru        7.53482495839053   11.19687145291571    9.47610589069103
O         9.56617269516848   11.55471603687774    9.76789994865786
O        10.89087095317627   13.25171771393660   10.32684984882483
N         7.89773982485097   12.33498597767174    7.86505333277961
N         8.06026435730866    9.77791804972887    8.19273688145627
N         5.59378506156074   10.82918438219035    9.32615441278223
N         7.30148081507696   10.02992535449635   11.04884334549324
N         7.40058023342125   12.78922983865860   10.72970359042954
C         8.72210646376758   11.71278532504883    6.99263843648074
C         9.41696292715812   12.42740279451536    6.01914525246343
H        10.09246589785600   11.92196034292987    5.34972914663008
C         9.25608219743689   13.79858375678963    5.93530190887421
H         9.80285582001343   14.37046851526753    5.20299268001227
C         8.37733323316357   14.42109106138321    6.81115392333477
H         8.21171001633656   15.48518168627349    6.77419867579029
C         7.72476803222432   13.65077514621858    7.75585918444997
H         7.03238561932245   14.10659869661001    8.45478908919852
C         8.78623770516108   10.25900934201622    7.15857236340269
C         9.49111555553842    9.40527206988753    6.31163588179079
H        10.07615224491158    9.80468331998058    5.50037194980865
C         9.44330788774227    8.04006534776564    6.52405631555070
H         9.99171715522927    7.36625751697111    5.88557043650287
C         8.67156480213659    7.55682610763220    7.57267003807242
H         8.59543481291957    6.49979967523455    7.76822526194875
C         8.00421394827331    8.45998197780064    8.37807214434169
H         7.39583098971547    8.11122778343562    9.20511713375671
C         5.06473635341807   10.06097323330419   10.31505529381031
C         3.70960762184585    9.73438335282288   10.33468257767591
H         3.31195417211755    9.12610618167985   11.13010763476593
C         2.88058744455974   10.19197492948923    9.32823536513820
H         1.83028349009748    9.94989184417941    9.32836786988829
C         3.43338466981402   10.96839328148475    8.31493190525719
H         2.82512152595852   11.34172349078678    7.50755100120449
C         4.78205302879475   11.25883978982432    8.35504239583322
H         5.24176115484747   11.86466996297148    7.58307380100219
C         6.03833069236472    9.62080289991071   11.31066271231335
C         5.75106741429627    8.84321069668259   12.43206385228727
H         4.74036880490229    8.52919297739249   12.63375346208417
C         6.77680780926301    8.47987927006427   13.28522772942451
H         6.57473075720007    7.88051038935503   14.15841287544537
C         8.07096050133719    8.89717403335172   12.99484292093073
H         8.89778401479325    8.62983104774104   13.63187840799031
C         8.28660394441519    9.66859274926323   11.86852309118254
H         9.27839215206559   10.01244942602791   11.59752284835955
C         8.59359491777496   13.36743805910108   10.93720366901655
C         8.74893258008829   14.49012975518058   11.73630592113482
H         9.74143152905916   14.89856504364054   11.84920867101700
C         7.63696293737762   15.03699846945202   12.35354081416034
H         7.72335902112369   15.90997082564811   12.98114007019547
C         6.40586915914561   14.42855253938890   12.14810953077223
H         5.51126320194894   14.81193438517321   12.61212518895359
C         6.33140863817943   13.31412101928705   11.33158824656913
H         5.37935764227007   12.82735376580220   11.14752637216086
C         9.81582061308476   12.69141730874902   10.28436869789708

