59
CSD_code = NAWTUA | q = 0 | S = 0 | Stoichiometry = C21H35AuClP | MND = 2
Au        2.99797955480118    6.05283401322243    6.93855431198037
P         4.80632446829439    6.21035152559252    5.58743655676579
Cl       -2.02419380948780    4.82002470764059    8.78101469178548
C         1.42588819066113    5.94589690912839    8.09552411792625
C         0.45667197909957    5.86254587509549    8.80845781235317
C        -0.71841858838266    5.74500389442611    9.63600537297099
H        -1.14917795310957    6.72057141599138    9.87032614505880
H        -0.51324566312876    5.19023660622588   10.55383173569248
C         6.08434634694798    7.37736283299575    6.25944202029648
H         6.99748803282770    7.33730803863798    5.65419879930857
C         6.39039384541613    6.93921761769740    7.69407450828051
H         5.45440150637573    6.92062995471605    8.26247797225007
H         6.80084408045472    5.92679900178799    7.70403580834972
C         7.37021473140576    7.89567596001473    8.36561403433761
H         7.56492390544932    7.56298867338856    9.38699476958481
H         8.31958254006235    7.88739340716672    7.82335838411596
C         6.80185906784527    9.31011200508120    8.37438366063421
H         5.87990818585997    9.32624111873416    8.95961725292603
H         7.51013280077925    9.99598789948478    8.84283502779039
C         6.50580605633642    9.76128974322828    6.94874570277791
H         7.43840556567996    9.79558952863648    6.37905522033993
H         6.08157080224898   10.76723837250538    6.95483727938604
C         5.53306890264884    8.80392673644312    6.26407005018321
H         4.57468388206749    8.81378498857815    6.79374225868537
H         5.35977293017558    9.14970779358181    5.24276442889042
C         4.34908188157972    6.90175730570817    3.92717864617537
H         3.93290318597586    7.89270751324903    4.16042095099636
C         5.47928443343863    7.06371270605942    2.91365471208745
H         6.29047467758526    7.66294358599044    3.33429324318850
H         5.87947053211248    6.08319370469172    2.64686495222479
C         4.94417304324964    7.73756971181208    1.65107966454567
H         4.58143394344066    8.73804256692238    1.89927845047563
H         5.75083031736213    7.84594754919004    0.92283009397576
C         3.80466522051342    6.92047374043028    1.04895163912329
H         4.18313252206594    5.94186453243357    0.74358771822227
H         3.42004298073913    7.42130220973389    0.15868255252923
C         2.68217266601389    6.73477910864012    2.06637320972673
H         1.88458482301340    6.12663751016722    1.63581806322011
H         2.25820450834979    7.70852108239339    2.32245767047779
C         3.21384751564081    6.06665082428691    3.33125177304884
H         2.41013863603025    5.95975600714015    4.06678279954821
H         3.57201006263832    5.06470001053987    3.08047127512250
C         5.70311439481352    4.62309281708009    5.18911986254195
H         5.24338716622914    4.27516583810401    4.25267906366866
C         7.21453395648621    4.71252728167378    4.97859369376727
H         7.70537432298695    5.01787730290043    5.90454299012028
H         7.45729718638647    5.44662754902380    4.20798376616453
C         7.75580234369776    3.34349392584339    4.56862017072166
H         7.30165347656817    3.03897812363282    3.62227625858778
H         8.83502333262723    3.40872938833873    4.41454717529536
C         7.44369498698747    2.30203625545655    5.63885927306670
H         7.94450444031670    2.57806594612178    6.56988857479370
H         7.82563273026989    1.32689412656199    5.33110512778980
C         5.93897409581152    2.21986074320675    5.87779166114712
H         5.72401128443333    1.49614288541719    6.66594477375324
H         5.44523141037928    1.87578807817435    4.96552983212919
C         5.38212802691410    3.58552031947008    6.26874633024659
H         5.81493319771357    3.89547960182796    7.22335173939941
H         4.29852133631530    3.52094152778256    6.40554436944754

