59
CSD_code = NAWVOW | q = 0 | S = 0 | Stoichiometry = C21H35AuBrP | MND = 2
Au        5.92807555612171   14.38842509363768    1.08486752565181
Br        0.73147108384765   13.24266347258328    2.90897894078800
P         7.71472016934734   14.52788852681421   -0.29627535369724
C         4.37269058863472   14.31317582527131    2.26465897453633
C         3.40867117487237   14.26115002784671    2.98840536261979
C         2.24377166196911   14.18057400496958    3.82525167721317
H         1.84514254284634   15.16462098930320    4.07632629192203
H         2.42303771683215   13.59665247845104    4.72924346953757
C         8.62365853899400   12.94588248688332   -0.68594986399329
H         8.15432477641868   12.57850848098558   -1.61003567518935
C         8.33186782701280   11.92072240775758    0.41364231853561
H         8.77378197397506   12.25081606824983    1.35733292604133
H         7.25113931097334   11.84372883424034    0.56638009077827
C         8.90117106258243   10.55673504767252    0.03515787874943
H         8.70798673535267    9.84247886636145    0.83746980518940
H         8.39832976180400   10.19215274530672   -0.86403534648541
C        10.40089611947694   10.65506773001682   -0.22795802616749
H        10.79065103656571    9.68036063848487   -0.52699581271612
H        10.91215692732490   10.95134697617098    0.69111268463756
C        10.68369232281492   11.68399422313720   -1.31833064966259
H        10.22052908496740   11.35902951020636   -2.25339055680316
H        11.75966744177452   11.76127412430988   -1.48857574971580
C        10.13026236678085   13.05190081091938   -0.92139815792854
H        10.63150212544241   13.37831277000953   -0.00830932564554
H        10.35070498879656   13.77707840702083   -1.70707659839353
C         7.21927902769256   15.19035233658269   -1.95686186878785
H         6.78493678871626   16.17468625173574   -1.72800313894824
C         6.09454174829456   14.32392583376873   -2.52774007600396
H         5.30381136255086   14.20639181087676   -1.77981567980836
H         6.47152159372761   13.32781187851993   -2.77403199659887
C         5.52945191081846   14.96636785522831   -3.79141079363437
H         4.74081804528069   14.33476418660256   -4.20425885255578
H         5.08572128313885   15.93224945305887   -3.53915130063618
C         6.63277240025565   15.16806971530976   -4.82662265214583
H         7.02881045872204   14.19561969265157   -5.12933165275807
H         6.22384185130941   15.65220324112935   -5.71524096552689
C         7.76219397089931   16.01616412313174   -4.24878839116111
H         7.38040553249522   17.01039329022025   -4.00396522831595
H         8.55535420354845   16.13621884274719   -4.98986318560423
C         8.33095810465538   15.36629934468231   -2.98833550308295
H         9.13501333532954   15.98722439205563   -2.58580300006729
H         8.74859280594687   14.39207714886210   -3.25151754216072
C         8.98805488855418   15.71908644024745    0.33992383812096
H         9.89039652194776   15.68474812183151   -0.28159187220036
C         9.32672611943799   15.30191691596433    1.77353000203510
H         9.75129768894037   14.29542222574458    1.78790410065229
H         8.40186725379497   15.27748535868711    2.35977211779900
C        10.30542754063220   16.27967025737153    2.41528183494048
H        10.52460663136012   15.96144397811869    3.43632190189990
H        11.24411213126393   16.27843842899789    1.85477019293159
C         9.71711374645337   17.68593214792278    2.41901239032447
H        10.42399040410795   18.38701401645037    2.86648315350825
H         8.80610590897618   17.69570122842348    3.02136736324925
C         9.38803867354681   18.11659363227243    0.99422185844106
H        10.30926129714882   18.15765406917389    0.40684397574642
H         8.94947282270352   19.11636037974739    0.99709677082375
C         8.41668124433201   17.13776116753957    0.33860908148622
H         8.21899543758826   17.46893022890997   -0.68310958243310
H         7.46822437034793   17.14038145885979    0.88610787066939

