44
CSD_code = NAWVAJ | q = 0 | S = 0 | Stoichiometry = C18H20Cl3NbO2 | MND = 7
Nb        2.89923731750376    0.93405486242862   11.45775597586365
Cl        2.45012727177312    0.39560448813446    9.28248753632610
Cl        2.36665418244959    0.83827388412813   13.70579439269250
Cl        2.48931574075768    3.25863950588310   11.34996185357531
C         5.00304129490168    1.32833373461631   11.32160273137515
C         4.83923166855824    0.08861248784496   11.73779129049320
C         6.06374067863069    2.27273616316298   11.08191574028594
C         7.28311048452810    2.16657061403733   11.75934845397351
C         8.28759500691777    3.08425241647760   11.52231518498077
C         8.09786564717081    4.10912315513348   10.60769680755793
C         6.89238001631451    4.22136882442451    9.93243779369202
C         5.87715040660708    3.31532786063118   10.17003037825213
C         5.67424305469732   -1.03372519371217   12.09542602286957
C         5.31464770945756   -1.85432820872851   13.16912460585367
C         6.11245329586910   -2.92501608700855   13.52484855093028
C         7.26297672091708   -3.20590599190493   12.80411797686821
C         7.61924277620416   -2.40535146151466   11.72935999162779
C         6.83829371808674   -1.32187481998121   11.37635527505069
O         0.24587348531517    0.82723469318168   11.45648038758156
O         1.91937022720769   -1.58043727233683   11.60446629577157
C        -0.45968063123808    1.89922363792816   12.04940750213042
C        -0.15713263326760   -0.42759055853487   11.96933180952704
C         0.56043779491164   -1.53774619702160   11.21248674159211
H         0.08503306909751   -2.50207247920753   11.44707101778979
H         0.48507798288623   -1.34940728347106   10.13063563066362
C         2.63082136736870   -2.59910363916336   10.93022506498674
H         7.42075505146461    1.36960864819410   12.47570030523932
H         9.22553515263226    3.00161044771310   12.05215429747951
H         8.88850882296974    4.82184687367397   10.42454907284601
H         6.74432311570710    5.02279246884508    9.22360382506568
H         4.92893902720037    3.39461807423723    9.65418047233700
H         4.41306919415913   -1.62257875051077   13.72271924965768
H         5.83601907996703   -3.54718653761721   14.36357503687826
H         7.88141145686859   -4.04710350075679   13.07974147136051
H         8.51528168250107   -2.62533681657590   11.16740040903677
H         7.10864065522151   -0.69329829953794   10.54028344259873
H        -1.53619893780156    1.78729823926538   11.87555114661191
H        -0.26534994144814    1.94788539602962   13.12793789798637
H        -0.10325183509185    2.81276117400660   11.57406019718081
H        -1.24310276916184   -0.54289463574275   11.83521699514136
H         0.08904615272842   -0.49630282599039   13.03959980996472
H         3.64053544523670   -2.60411903102199   11.33764861312214
H         2.66968305670511   -2.40128354667808    9.85228806070855
H         2.15654793651372   -3.57191451295575   11.10651468447548

