99
CSD_code = NAWWOY | q = 0 | S = 0 | Stoichiometry = C36H56Cl2O4Ti | MND = 6
Ti        0.00024866661971   -0.00021590262750   11.69846935027285
Cl        2.15012140442077   -0.69939514780078   11.36512506808051
O         0.36797818931046    1.29730037423912   12.75565788466414
O        -0.38938408514526   -1.32038435386267    9.90565312022669
C         1.02675441775911    1.29162838093318   13.91649140165084
C         2.08989183288812    2.18539816879797   14.17798078088779
C         2.81602068055289    2.02970615032477   15.34929819481725
H         3.64424406650344    2.68998169118357   15.52600581427061
C         2.52506527590765    1.05770486374103   16.29682422173154
C         1.40446176909784    0.27457166325528   16.07574360990631
H         1.10270803457465   -0.46317277872153   16.80418215553219
C         0.63219916247055    0.38841232154154   14.92464931471309
C         2.41771411038387    3.30973448176723   13.19990221882025
C         1.15143857395306    4.15187080256229   12.97833704140819
H         0.86504352508606    4.64313466639039   13.90655164040268
H         0.31995932884621    3.52911076310451   12.65525857222030
H         1.33011783685628    4.91719854413569   12.22435211604386
C         2.89750904527070    2.70083816809666   11.87805714671715
H         3.17600962584378    3.48664840580359   11.17630223603319
H         2.11095751941498    2.08800774134529   11.44583221439086
H         3.76401499382784    2.06509209686867   12.05049827027213
C         3.51397536770750    4.25360037913512   13.70753944966894
H         3.24257121532205    4.70021730157030   14.66126387955311
H         3.64825147499715    5.05910335892602   12.98741397890762
H         4.46534536108358    3.73713756884650   13.80921701317265
C         3.34813848211990    0.85231198448850   17.55953748366019
C         2.45582023456637    1.08928165350382   18.78635817900380
H         2.04293940872785    2.09574730781365   18.76191926851367
H         3.03503253601695    0.97549445815027   19.70051075602456
H         1.63155354646789    0.38235311072252   18.81663555525206
C         3.87941069610534   -0.58755777513219   17.57431197806924
H         4.48115296229375   -0.75835389961256   18.46488154594903
H         4.49798360581058   -0.76676584963639   16.69770608901988
H         3.06598620259111   -1.30740656374552   17.56779330459953
C         4.54457631904855    1.80348902891124   17.64864950008003
H         4.21950457830942    2.84066388200841   17.68562127901465
H         5.21410027899728    1.66784865208140   16.80275841515251
H         5.10536882123650    1.59578982224651   18.55803656722976
C         0.31252072594801   -2.54917054008944    9.67680558220560
H         0.57756381236909   -2.97642921489470   10.64692862613235
H         1.23759457492918   -2.33990776264204    9.12016343731630
C        -0.63703249139538   -3.41600441994828    8.86076612854992
H        -0.11535859803349   -4.19696200249703    8.31323389784876
H        -1.38439585753677   -3.86953398863265    9.51101827694429
C        -1.28207957866928   -2.37249280872640    7.95327273610049
H        -2.25739747509252   -2.67608897743346    7.58093840418043
H        -0.63266001574996   -2.16278451040632    7.10176320150077
C        -1.38061581612682   -1.15348136121225    8.87364645363704
H        -1.19249795473970   -0.21513746881976    8.34092224754164
H        -2.36210532372300   -1.08228357847800    9.35517682591382
Cl       -2.14894483541716    0.70032322992779   11.36337090901977
O        -0.36778446518990   -1.29753387338177   12.75578180365357
O         0.38925446426208    1.32029671569734    9.90569672736009
C        -1.02676195925224   -1.29162878588815   13.91649482203436
C        -2.08996880261947   -2.18533387604664   14.17794073934802
C        -2.81607606101172   -2.02966065856130   15.34927600160306
H        -3.64429977474709   -2.68993645081484   15.52598479459245
C        -2.52506181373608   -1.05771591628442   16.29684344015928
C        -1.40445283129625   -0.27459011325164   16.07575559201521
H        -1.10267498177886    0.46312942407649   16.80421046385203
C        -0.63220172517205   -0.38841934707435   14.92465332486962
C        -2.41782209279727   -3.30964388279084   13.19984613969526
C        -1.15157002000543   -4.15180292349757   12.97825800182776
H        -0.86518236728857   -4.64308124364240   13.90646749253243
H        -0.32008974569679   -3.52903548237593   12.65518692250694
H        -1.33026103815187   -4.91711156271003   12.22425587710304
C        -2.89759462720687   -2.70071336069541   11.87801211394994
H        -3.17615099126699   -3.48650553430911   11.17625879716108
H        -2.11100992945879   -2.08794444218638   11.44577406828257
H        -3.76405043910780   -2.06490062929109   12.05046870645784
C        -3.51413509234342   -4.25346586095497   13.70745316108674
H        -3.24276888316648   -4.70013904676090   14.66116148615297
H        -3.64845725130404   -5.05893151484273   12.98729610061161
H        -4.46547636339440   -3.73695030463640   13.80914126159776
C        -3.34809835290892   -0.85234940609909   17.55958624070732
C        -2.45574699772836   -1.08938173264271   18.78637321076310
H        -2.04288104128084   -2.09585352482624   18.76188383635748
H        -3.03493009038881   -0.97562218954248   19.70054684067157
H        -1.63146770968030   -0.38246731179372   18.81665919012434
C        -3.87934750784843    0.58753164388570   17.57443706378720
H        -4.48105745417016    0.75830933084582   18.46503206079625
H        -4.49794489648480    0.76677575140573   16.69785601627882
H        -3.06591081396237    1.30736760321969   17.56791290765020
C        -4.54454847775396   -1.80351207904705   17.64871058968309
H        -4.21948448083679   -2.84069244501519   17.68562783235071
H        -5.21409412641804   -1.66782828494693   16.80284374738146
H        -5.10531079732077   -1.59584894845982   18.55812302452775
C        -0.31260757317316    2.54909364045078    9.67681353606075
H        -0.57759305996450    2.97641585118083   10.64693844143408
H        -1.23767846570663    2.33984109608632    9.12014531636362
C         0.63697417609285    3.41586304997344    8.86069354755963
H         0.11533965688730    4.19678742859448    8.31307585969779
H         1.38437663416284    3.86944797359539    9.51086810830198
C         1.28205956794691    2.37232890918727    7.95325608148051
H         2.25736806242711    2.67591579437912    7.58087338001617
H         0.63265036992047    2.16250551699031    7.10176980276211
C         1.38060473314603    1.15343115815802    8.87376033384816
H         1.19267239804985    0.21501133977172    8.34113068969246
H         2.36207680612617    1.08237638739674    9.35533116045201

