81
CSD_code = NAXDOI | q = 0 | S = 0 | Stoichiometry = C39H37MnO2P2 | MND = 8
Mn        0.56489265549546   -0.45486375250055   11.31424592000836
P        -0.17272159468341   -1.90611428576242    9.79114095884046
P         0.29730583331902    1.82616659133534    8.40442327891632
C         1.05482796250970    1.05157316768048    9.87324938714928
C        -1.20096996391247    2.48161852163720    9.23949653665872
C         2.09571428334506    0.91154496069675   11.91570651044794
H         2.46357820266110    1.19045771810575   12.89585995873825
C         1.10967220824914    1.60648038176225   11.17763516047707
H         0.58168274698751    2.49496178804851   11.50229455204505
C         2.04889229460765    0.01624792810708    9.79958593894070
C         1.32781715369257    3.33388559199033    8.26478895327121
C        -1.95265600815418   -2.28691394356877    9.83285102273199
C        -1.38075483128032    3.80969394532720    9.60563420309296
H        -0.60385201942658    4.53732222116543    9.41411544241872
C        -2.20773574890165    1.55655904229510    9.48893791893606
H        -2.06807288782859    0.51661209091232    9.21240356868763
C         2.68263480183342   -0.05190231063034   11.06000583363102
H         3.56104829685141   -0.64321899185763   11.28708050501056
C         0.75426816758507   -1.62605305972287   12.62320401685147
O        -2.01303943553581    0.27144487608496   12.48222849570868
C         0.52776846829432   -3.59412152125075    9.77806596776508
C         2.45790346455471   -0.71722523916163    8.60493506908210
H         3.52683496716556   -0.73533778751303    8.41892064493119
O         0.88932420653880   -2.37009331986842   13.50162496159636
C        -1.00888906419152   -0.02903539146450   11.99270624591258
C         1.64219466302899   -1.38589580271518    7.78692326342559
C         2.53187134667421    3.52694989688587    8.92618821900238
H         2.90306380790423    2.78785629408449    9.62301228651348
C         0.89584240906855    4.28332992638223    7.34184786738583
H        -0.03113984082678    4.11518409058055    6.80717762399795
C        -3.54682570613340    3.26797618119375   10.46973788064375
H        -4.46079403425654    3.58260984269350   10.95445058275559
C        -2.55381343709032    4.20943738577589   10.22619842594910
C         3.27967046119148    4.67717845941749    8.70898822413874
C         2.81371887872528    5.62491016840325    7.80979559301473
H         3.39111097957112    6.52364269699643    7.64094679386336
C        -2.84006807128370   -2.17355902335071    8.77057082235227
H        -2.50297978339499   -1.83926686092492    7.79990290933738
C         1.62502714316837    5.43908310055018    7.11445689513817
C        -3.38837161081866    1.93829543474640   10.10943722426200
C         1.76162699267073   -3.82702568976987   10.37153179867720
H         2.25344107616900   -3.02002710236863   10.89852499826377
C         2.15594403811734   -2.14051344523622    6.60073870635036
H         3.22666026469835   -1.99871353482398    6.47716225510647
H         1.65280609244541   -1.80694221851373    5.69305166418981
H         1.95706438521518   -3.20642803144605    6.72348150465193
C        -4.17840138746406   -2.48156478408629    8.95757954262821
H        -4.86820127845616   -2.39032465121953    8.13064033361926
C        -2.41773428902115   -2.69982644466786   11.08150431686448
H        -1.70532851408931   -2.75456524805863   11.90179905966367
C        -2.76025851223775    5.63941323301681   10.62871195980683
H        -3.00235791428733    5.70497200267691   11.68863253190033
H        -3.59054144784239    6.07187440528275   10.07051912162417
H        -1.86874945562915    6.23196385719935   10.43651342976531
C         4.57338531881680    4.87323890782097    9.44162459002703
H         5.29485810467398    4.11218686682296    9.14390755126390
H         4.42066703400062    4.78336650973893   10.51665532640799
H         4.99744594033504    5.85183353729969    9.23073207227585
C         1.69594917944903   -6.10669156398031    9.63527706860416
H         2.14862515801452   -7.08572102228248    9.58027692630686
C        -0.12142816169085   -4.62960027484146    9.11250142650738
H        -1.08756902953336   -4.45498008731554    8.65853900490813
C         2.34477253037664   -5.07914037293894   10.29920676695523
H         3.30387829164215   -5.25597799628319   10.76334557418765
C        -4.63372399877357   -2.90065972174985   10.19521801408535
H        -5.67867009718713   -3.13515412316462   10.33350625379327
C         0.46188522495862   -5.88117460379596    9.04600466955996
H        -0.04684033665298   -6.68472936134083    8.53339880168815
C        -4.45335395725025    0.92389453669451   10.38873283916976
H        -4.12524703212653    0.26166055511226   11.18923749337685
H        -4.64113083630397    0.31021044885019    9.50949715616362
H        -5.37979605543925    1.40486619065678   10.69248169863203
C        -3.75076531721811   -3.01008951548609   11.26027010992918
H        -4.10708275386012   -3.32939513199602   12.22797130063171
C         0.16388555715674   -1.49207875853788    8.02261188327248
H        -0.25518001986007   -2.29560375409670    7.40725111148240
H        -0.35113427251352   -0.55182176837865    7.78950769620734
C         1.13156308854815    6.45939341584108    6.13315565419874
H         1.82081559553802    7.29697815732462    6.06057715065546
H         0.15540248592858    6.83641548071539    6.43689074424501
H         1.02113694344302    6.01176008881180    5.14615422873161

