83
CSD_code = NAXDIC | q = 0 | S = 0 | Stoichiometry = C40H38CrO2P2 | MND = 9
Cr       -1.65166981113642   10.53243513935112   18.16015561930853
P         1.62327705757702    9.37123209663423   19.73760726304157
P        -0.23408483525498   10.55938987328749   16.34848567398911
O        -1.67484807519314   13.50275635799678   18.24461595703253
O        -3.84280241357722   11.64972686103804   16.49119497934723
C         0.11729203380260    7.69045616330473   17.63088096530848
H        -0.07874957474869    6.62522823991256   17.69980843575694
C         1.01278598080920    8.11610127662445   16.73637663899468
C         1.32321910193990    9.55982094812425   16.49170943864278
H         1.90479076585095    9.66833611048769   15.57105530012213
H         1.90065188011628    9.97732105918320   17.32562922569113
C         1.75624196785780    7.15307005343181   15.86245426602151
H         2.83066002267177    7.30562882549629   15.96082364276805
H         1.52580491450140    6.12260151597379   16.12003237755053
H         1.48741757298055    7.32017694457323   14.81856321804421
C        -0.73680627312814    8.53098193983695   18.48151844961458
C        -2.12292097316842    8.33714931890155   18.44589841868387
H        -2.53903468067110    7.57461663463543   17.79634646586991
C        -2.97685022588670    9.11105602707040   19.25513112953777
H        -4.04447868011571    8.92234498700444   19.23797013360909
C        -2.43914782202670    9.99443542036309   20.20467058036244
H        -3.08643600850557   10.50566334192599   20.90739371608267
C        -1.04978456305646   10.16944008891199   20.26706794282189
H        -0.62714070157825   10.80753788492124   21.03678664045208
C        -0.17996444146062    9.44179217526579   19.43043938591471
C        -0.82938273694107    9.85112836488996   14.76878536968641
C        -1.98876745754593    9.08802001391862   14.76693426533175
H        -2.54427750350962    8.98587597180934   15.68968714080333
C        -2.43252850760871    8.49487611837924   13.59821511130080
H        -3.33686566897813    7.90408976522877   13.60046630712888
C        -1.72007302095367    8.66434030159759   12.42278152172651
H        -2.06593873212335    8.20395242111402   11.50899303734448
C        -0.56693377556472    9.43330693427254   12.41604056225117
H        -0.01652855451422    9.57303439104061   11.49675878757002
C        -0.12052441498598   10.02411014233901   13.58337422009093
H         0.77312074095948   10.63444743023360   13.57601792626400
C         0.39016604910433   12.16082904050730   15.74634585846569
C        -0.57976433063109   13.01840269078559   15.22724438384641
H        -1.60344708836167   12.67031092480758   15.16708324020296
C        -0.23893588175116   14.28869530408669   14.80895686055835
H        -0.99582959673266   14.94708328421350   14.41001393117960
C         1.07519117011135   14.72130886902932   14.90971152470242
H         1.34383127566712   15.71608516662091   14.58641794676424
C         2.04067768503574   13.87934360706008   15.43266389874717
H         3.06464540905178   14.21627405470180   15.51421779694646
C         1.70288425780747   12.60436596771317   15.85661515478318
H         2.46803912167927   11.96640900887070   16.27453892511325
C         1.65449769799431    8.38082028850185   21.28648292708209
C         2.92501471529015    8.04436354036820   21.75202702102867
H         3.79194023822125    8.39968552525524   21.20836337793872
C         3.08752676459634    7.27596889534627   22.89092799745238
C         1.95253086038084    6.82272051567246   23.55629957563535
H         2.06983841560670    6.21938786592123   24.44608235551740
C         0.68019535672559    7.11967899568316   23.09538627102906
C         0.53914906570013    7.89825592345984   21.95224874130904
H        -0.45718577290544    8.12133949430958   21.59626590740418
C         4.45110842440688    6.92203567341007   23.40354694621717
H         5.22648181785342    7.38772033004225   22.80038361307164
H         4.56662733617414    7.25012691012160   24.43592583122601
H         4.59459351278553    5.84216633003785   23.38029202847945
C        -0.53871158693901    6.63179694374217   23.82011281081425
H        -0.28434849918598    5.84584073591410   24.52693352916220
H        -0.99904632175460    7.45224405424138   24.37179125311714
H        -1.27652550377374    6.24809559258099   23.11747002493652
C         1.85186493165006   11.06522079981070   20.41265859471069
C         1.54689940925474   12.12790123724330   19.56920318674557
H         1.10636973467435   11.94119740984732   18.59488684055362
C         1.76455252437656   13.43912889204574   19.96949497735397
C         2.30413403130576   13.67019583806084   21.22659611959130
H         2.47898862795341   14.68615953514596   21.55306237079569
C         2.62496328527998   12.62200576666709   22.08105013231248
C         2.40297740742753   11.31942437260099   21.66334981076436
H         2.64982974647782   10.49971245723800   22.32350349934592
C         1.42676230822855   14.56892905810890   19.04802548859654
H         1.58826606474207   15.52880013830023   19.53192892230873
H         2.04145509082340   14.52092365284277   18.15003876173430
H         0.38749994096316   14.50102565777190   18.73323690135848
C         3.20373142934050   12.90647925236747   23.43507756463710
H         3.38813369244879   11.98467370462339   23.98156663948119
H         4.14411759619749   13.44812669068641   23.33872481709365
H         2.52196549613873   13.52601550662950   24.01667034370402
C        -1.60704531253867   12.34054048663794   18.23484845715109
C        -2.97993318373637   11.16990287136523   17.10875672505549

