71
CSD_code = NAXHOJ | q = 0 | S = 0 | Stoichiometry = C36H18BF15Zr | MND = 12
Zr       -2.70280839446642    3.02794945924154    9.96335835377144
C        -0.16930278864304    2.53910869871743    9.67842936300224
H         0.39686128149090    1.72562447035844   10.10840681677356
C        -0.31985360645690    3.83073750542323   10.21965211834545
H         0.11177829808827    4.18511559705214   11.14801709753546
C        -0.97093860621365    4.63579985770274    9.25840114961103
H        -1.10242200556451    5.70973238959919    9.32340837489929
C        -1.21316265996181    3.83342494396770    8.11682270136471
H        -1.54794752233905    4.17911522032342    7.14772359476994
C        -0.73300841259593    2.53605680266760    8.38630748772915
H        -0.66287056079090    1.72631607943326    7.67270264093916
C        -5.09295225121667    3.11984202797548    9.43721618378257
H        -5.76512621180951    2.27583546825326    9.52517267679167
C        -4.88947951318866    4.11982990891839   10.41796338093121
H        -5.37323406390639    4.15485583122653   11.38604608994287
C        -4.14063558689901    5.16209782841193    9.83082661925813
H        -3.91860516268276    6.11759190257864   10.28873358022793
C        -3.91107086676992    4.82568740144448    8.48559373104341
H        -3.48666119788700    5.48510938412163    7.74175706012612
C        -4.46071260720697    3.55126565217983    8.24294452469173
H        -4.54044331247237    3.06470749956304    7.27733985879324
C        -2.95244454599254    0.85497359560990    9.56465896453255
H        -3.95237333136416    0.53624844040763    9.90119021430607
H        -2.93331209065949    0.63221147924080    8.48139321352347
C        -1.95025352477059   -0.05389872113027   10.23590253418317
C        -1.36805777752336    0.21199194339435   11.48927014102882
C        -1.59869842124030    1.51721080858217   12.21030296113102
H        -2.21650769969566    2.12610937392103   11.52870235643794
H        -0.63079914853449    2.00118745536551   12.33744411981770
C        -1.59850599267747   -1.24694951901503    9.60062110457847
H        -2.02558672357854   -1.46743722953072    8.63117915934383
C        -0.73340007637979   -2.15871705043564   10.17470129904941
H        -0.49231333957653   -3.07328142897650    9.65441567492780
C        -0.18316167303482   -1.89507442766057   11.41659705248088
H         0.48906275555329   -2.60012662249071   11.87966020169796
C        -0.49452760649242   -0.70989210491029   12.05491442540868
H        -0.05705476160141   -0.48564023321565   13.01666554157037
B        -2.43133796249538    1.44571820096537   13.64400910763239
C        -1.47676774130325    1.35437997074243   14.96761232622243
C        -1.69063189571440    0.55798078143539   16.09104588289085
F        -2.77075948850995   -0.21942232141748   16.18506743775412
C        -0.83631985564166    0.55659405249496   17.19247683589466
F        -1.08700791409025   -0.24546699429881   18.23043605772731
C         0.26514091692135    1.40126154391442   17.22460196494886
F         1.09284978149147    1.40667802333999   18.27170238147441
C         0.46763920908089    2.26936290543405   16.15900513794936
F         1.48357929655131    3.14123126416429   16.18040995430990
C        -0.40317828832487    2.23676394231344   15.07856623787850
F        -0.19851554017995    3.16048054798548   14.11197465821620
C        -3.26522482185403    2.85223288198285   13.94629949997170
C        -4.12111411721901    2.90713722503922   15.05214027131907
F        -4.35064423984518    1.79884075935432   15.75739070027997
C        -4.78154843422537    4.05884663935802   15.47013972563541
F        -5.57787167732592    4.02274179903412   16.53723111008675
C        -4.61815868558575    5.25284665899821   14.77148826075708
F        -5.24029211079293    6.36503674060696   15.15572080476478
C        -3.80464356815195    5.23907382972294   13.64887495793074
F        -3.63485547348898    6.32768374800775   12.89106065642788
C        -3.16838101922887    4.06106594136601   13.27571192660958
F        -2.43814960381503    4.18196753480881   12.08405681870086
C        -3.47830572175685    0.24355476003098   13.32643857147031
C        -4.49521547218738    0.56053272171969   12.43822757295954
F        -4.51047028991725    1.83803179892094   11.89326815246288
C        -5.42884427780163   -0.33595701858754   11.94802718301552
F        -6.35589856264249    0.07841860897797   11.07154208800691
C        -5.34333867846117   -1.66762508453328   12.33446884449422
F        -6.22560461412955   -2.56246286397695   11.88705554399343
C        -4.28068958528084   -2.05659230043204   13.14356227009032
F        -4.12792827271615   -3.34558862743955   13.44900983997347
C        -3.36029712216526   -1.11657516348865   13.60337086826788
F        -2.30098446013083   -1.58609219484658   14.26226398150734

