27
CSD_code = NAXPOR | q = 0 | S = 0 | Stoichiometry = C6H14Cl3N2RhS | MND = 6
Rh        4.09107115365224    6.89949198811225    7.93614464038603
S         3.28717316393113    4.81228684553557    8.59665001445683
Cl        4.70730521973107    8.99257192040070    7.28110450323539
Cl        5.44829126357783    7.02293846239564    9.74168486604521
Cl        5.62417801459697    5.92678916377255    6.58448595523948
N         2.42984276805889    7.73354330738936    9.02034536806212
N         2.57471029486033    6.83929375115195    6.39183068919799
C         1.31208510097821    8.06752049653836    8.12111623586066
C         1.75516221300887    8.02903989054565    6.64757103608237
C         2.08879814314570    6.81967274982250   10.11134065465268
C         1.85766846352052    5.39500898767782    9.60827215292723
C         1.80944609619321    5.58957692375693    6.31888529207298
C         2.54869222918673    4.42294926313381    6.96595644591944
H         2.94182999425697    6.80709172657811   10.79638790399443
H         2.83769298830986    8.58666795440729    9.40190462532598
H         1.19628057383393    7.16094372267104   10.65602709025834
H         0.95786892103101    5.29934706972621    9.00481571277256
H         2.38693250556718    8.90000073671609    6.45427690363722
H         0.91856158862609    9.06482591072311    8.33844697204139
H         0.87415635823972    8.06128652694751    5.99338006436444
H         0.50324659767671    7.35195899467745    8.29083536577169
H         1.78281116710533    4.71626861419938   10.45679853987258
H         1.89894318591094    3.55453908217148    7.07323032810005
H         0.85023599734531    5.73831116218384    6.82196732683365
H         3.42921714719554    4.15743881639760    6.37755286713719
H         1.59273509551418    5.32158846963740    5.27750200006181
H         3.12076375494553    6.97144746273042    5.54088644569023

