110
CSD_code = NAXTOY | q = 0 | S = 0 | Stoichiometry = C45H60N2PScSi | MND = 5
Sc        7.01508296430858    3.99377139637898   10.98224675767741
P         8.37729266384213    3.40730632912884    8.61366255526929
Si        6.13269485716492    1.09756291353538    8.63139677027255
N         8.38991716911762    3.63533277639071   12.63048676887060
N         7.52510957281112    6.02828332138121   11.35198761020404
C         9.27546949853440    3.96205858251741   14.90683286353649
H         9.82736383793630    3.03764489907081   14.75271844294975
H         8.47130262084548    3.76238242086957   15.61571238082384
H         9.93339664148324    4.70601827008159   15.34931207319813
C         8.67380669005718    4.47087415935986   13.61490376064712
C         8.40833643415452    5.83982007217407   13.56050691023542
H         8.65702277734028    6.40789141606286   14.44535348632775
C         7.83811906156332    6.56786873332994   12.51111405199667
C         7.60929614098003    8.03792142585410   12.78100451986093
H         8.56261262677601    8.52960351428160   12.97003791653650
H         6.99131653726617    8.16163511053052   13.66900740880946
H         7.11825736051982    8.52225718264920   11.94022687272015
C         8.81913651355886    2.28785529687705   12.71797202601024
C        10.04268271256140    1.93211825355445   12.11795616086545
C        10.45890116343202    0.61146763978331   12.18664323065993
H        11.40024437033504    0.32132106487463   11.74824631088722
C         9.68133045683734   -0.34988218467517   12.80694938393015
H        10.02065292149332   -1.37429742761180   12.84746302981026
C         8.46738126315856   -0.00024144558457   13.36490512303505
H         7.86068860815789   -0.76101700405511   13.83231165460687
C         8.02421893308491    1.31466189761938   13.34228020720362
C         6.68305817591888    1.67391152793597   13.94320548217938
H         6.58196399148636    2.76769458691941   13.94662184797607
C         6.55141879014549    1.17739339234766   15.38474382580264
H         6.50725106333283    0.09203697615783   15.42224679743864
H         5.63952683606198    1.56787919457061   15.83172527690138
H         7.39817466302984    1.50462207734188   15.98412880451328
C         5.56015762276183    1.10353825119430   13.07077292325378
H         5.63226165090490    1.51148976734996   12.05612241886507
H         4.58898354124551    1.36463035733788   13.48648289446846
H         5.63007307640399    0.01941589561356   13.01597097824602
C        10.85835329540274    2.98441211750980   11.39614359161027
H        10.14452508565093    3.69062065249662   10.93225180105815
C        11.73732176657587    3.77329005835387   12.37255599275626
H        11.13373974997838    4.37299403976034   13.04661374990451
H        12.39474969295044    4.44110909404030   11.81945156269013
H        12.35180584731500    3.09364381863122   12.96096100809757
C        11.73597483955248    2.39935253141011   10.28979422034532
H        12.60258560480530    1.88997632358432   10.70635107406840
H        12.09603259082977    3.19885967253465    9.64556528024625
H        11.17682206663304    1.69854276872310    9.67514044240724
C         6.81082802632539    6.76978782959128   10.37830942709438
C         5.39988739302532    6.77307413467740   10.44639193722887
C         4.69628358209562    7.43608261621043    9.45378801265447
H         3.61833657338247    7.45719770226613    9.47540240201847
C         5.35757275941976    8.08687747636899    8.42473915245631
H         4.79059919394472    8.60330523175226    7.66411716136093
C         6.73614017698478    8.07936793325343    8.36974363744529
H         7.23827315236238    8.59463687002346    7.56527719541917
C         7.48366835318691    7.42232126864462    9.33870381472589
C         8.99491822743076    7.42380874779703    9.28394771856364
H         9.36171770792004    6.72313195465205   10.04545759041273
C         9.54216581484218    8.81868731841917    9.59893530689223
H        10.63010554395966    8.80825396644446    9.58400310489947
H         9.21406683668322    9.14995025181275   10.58066216332077
H         9.19426672504211    9.53898118733987    8.86150745978989
C         9.50659049649007    6.95356882620464    7.92223240468010
H         9.06061842665159    5.99389679649754    7.66482006881797
H        10.58896225764365    6.84286047798740    7.95062117005158
H         9.25803666811136    7.66595757269337    7.13933432812649
C         4.72884948729961    6.03986280688063   11.59340437605419
H         5.24303671359119    6.33921373043430   12.51956059931462
C         4.87527840242598    4.50162931574985   11.43159442542364
H         4.14734412846875    4.20965809443066   10.65206076259484
H         4.48809185131694    4.06171180733583   12.36951771990759
C         3.25328940317855    6.42364663079199   11.76660170504521
H         3.13282508284274    7.50267494510483   11.84933165700483
H         2.86742446431936    5.96715945948745   12.67654727885538
H         2.65388361890414    6.06270085177063   10.93308332600312
C         7.31391131311900    2.26322821405537    9.54555324873182
H         8.02275336854028    1.67712174146977   10.16057366942914
C         4.32139528231743    1.62397901012819    8.97239834683984
H         4.13164881129212    1.76356187777380   10.03366218240041
H         3.63154329668675    0.86684749269212    8.61273951610013
H         4.07815428669139    2.55215590671136    8.46378983154081
C         6.36429978636432   -0.65222483463357    9.38544259825462
H         7.19132093069750   -1.18549388542374    8.92697527542287
H         5.47296284813202   -1.25390125624440    9.24393470181262
H         6.56140161253474   -0.60087999807422   10.45188992169728
C         6.24925157986914    0.92442261105929    6.72681952338838
H         5.74194041578289    1.74756112426780    6.23354582913357
H         5.77851184622864    0.00286928891664    6.39641343321149
H         7.27459586604351    0.91582849828028    6.37195933167186
C         9.56442948652433    2.43567888954479    7.58816940750852
C         9.62974495241118    1.04926303370503    7.64153134010686
H         8.91739483159215    0.50591214272293    8.24535281815450
C        10.59864110223250    0.36506909149050    6.92896604594527
H        10.63175256228165   -0.71470226774463    6.96736866727422
C        11.52849131240020    1.05924719276977    6.17333170358528
H        12.28442332348876    0.52402939190878    5.61743395615936
C        11.49592948498616    2.44443962130824    6.14546080955868
H        12.23074095215666    2.99065634906170    5.57091456697923
C        10.52900085802341    3.12795983875714    6.85790061138008
H        10.51320589940461    4.21000696892433    6.84955764235393
C         7.24476587467588    4.00590905687902    7.30456023400186
C         7.53731687731626    4.00059074090214    5.94427284118190
H         8.46294158673170    3.57323984196709    5.58793527481707
C         6.63889894707433    4.52474463630451    5.03189626494217
H         6.87798383772849    4.50589555269618    3.97813730609627
C         5.43876189129780    5.06564807777383    5.45942969293233
H         4.73929317658611    5.47078702594782    4.74318602356945
C         5.14219760814334    5.08461558867640    6.81263953054742
H         4.21113991713258    5.50840035224634    7.15892010944105
C         6.04214277377186    4.56823948778059    7.72374961097360
H         5.81443608346386    4.59205607250513    8.79030397654376

