41
CSD_code = NAXVIT | q = 0 | S = 0 | Stoichiometry = C14H20Cl2N4Zn | MND = 4
Zn        3.41210792934583   10.72216508767218    2.70734893679154
Cl        1.53853141450601   11.54140944364510    1.84007962586615
N         2.74062221633382    9.18468578087917    3.96355601051198
C         1.45964570950576    9.09912177955161    4.32372411708738
H         0.83328637660821    9.92659263976279    4.02256844089884
C         0.93501921699369    8.03644011835973    5.01729003411424
H        -0.11244809244788    8.04836799297219    5.26400835863050
C         1.76240220105868    6.95535224375628    5.38200349681272
C         3.11272743656990    7.06588527759406    4.99387714063716
H         3.82541048495576    6.29119237927107    5.21779177095423
C         3.53977803255822    8.17217762346071    4.30154311231980
H         4.56824745073696    8.26207696393040    3.98225391970310
N         1.29170452714321    5.88354217765496    6.06034373364659
C        -0.11009924431380    5.78735108592271    6.39219240342830
H        -0.41171953561415    6.60027198178079    7.05862234528696
H        -0.30015520162406    4.84473390159537    6.89851268965159
H        -0.73082305225568    5.82301553196952    5.49273509237927
C         2.17245959529557    4.79317795486681    6.40620003373327
H         2.58001991593428    4.31373618121810    5.51142411516338
H         1.62181824227126    4.04658361402665    6.97229672130519
H         3.00269693170028    5.14462037882536    7.02431709225626
Cl        5.28568727955907    9.90288199212321    1.84010387075156
N         4.08361328360014   12.25959553990924    3.96360286420068
C         5.36462816660283   12.34524430517028    4.32361679985026
H         5.99094662911331   11.51767513763036    4.02264552835058
C         5.88923629934876   13.40789287939707    5.01724554291991
H         6.93668162065443   13.39592127421542    5.26404889516922
C         5.06184178353571   14.48896060150568    5.38199148774399
C         3.71148965989922   14.37836581084826    4.99397823477327
H         2.99882990250570   15.15311148480810    5.21778534114703
C         3.28441118949712   13.27200329231604    4.30177375462647
H         2.25604672223432   13.18231437362503    3.98209728899866
N         5.53253602656069   15.56076660229103    6.06034157444095
C         6.93433774612752   15.65694995254407    6.39220388934395
H         7.23595787750541   14.84399819168139    7.05859834125925
H         7.12438430958932   16.59954429590989    6.89857125860807
H         7.55506675069993   15.62133068549923    5.49274771853140
C         4.65178198776463   16.65113570934492    6.40618423473426
H         4.24422303212952   17.13056415021660    5.51139976980649
H         5.20242440830075   17.39773740477980    6.97226941298061
H         3.82154276956900   16.29970617738590    7.02430500058392

