69
CSD_code = NAXXUH | q = 1 | S = 0 | Stoichiometry = C28H19F12N4O5Zn(1+) | MND = 6
Zn       10.55318720588341    4.79427825937243    2.87420188731731
O         1.44859738565412    0.86841549605848   -1.87147893271649
O        10.49087028433313    6.20250888824230    1.22373426355308
H         9.50972713154581    6.33483785769921    1.15652180839285
O         1.63540818069159    2.27568254308685   -3.61374311636334
F         4.30527298821416    1.92906176735669   -3.59112334144684
C        11.02814127680629    2.43426460628544    1.05072364005561
H         9.94841437101603    2.41242470638499    1.04933439182369
C        11.77926523505666    1.49814095868078    0.35522176450297
H        11.29104095047858    0.72082687531667   -0.20909835395162
C        14.20525171426293    6.78375411645557    4.13349341489664
H        14.46918394887106    7.62689217058529    4.75051135945498
O         7.86060259270525    6.02190465803374    1.40933347131446
C        15.16534335338525    6.09210437922865    3.41228638144909
H        16.20277068738097    6.38650929462147    3.44900604313473
C         3.63510524866551    1.42445544887460   -2.54287482126248
N        12.51029452389424    5.34100466914187    3.29376806725589
C         2.09312027047957    1.58635162754402   -2.76309729064738
C        13.42647164571219    4.65504743972424    2.60086755078782
C         7.49471736810473    6.08299489341162    5.32413962184250
H         6.80600238588645    5.54223513182968    5.95058229431002
C        10.50382301362748    2.37500490657808    4.75855686707009
H        11.37613194966777    2.04296913617337    4.21244232145329
C        12.91581803611520    3.52448215442067    1.80449724266296
C         4.07254228988492    2.15228575285203   -1.23359225575118
C         6.18509636453960    2.72233380783204    0.24238537744205
N        11.58312248495624    3.41108061603214    1.75143794439111
C         7.80644056933473    4.90426270674952    1.89737510418879
C         9.22453376051269    7.39566951143301    3.70122186691062
H         9.94020985089317    7.87680849234989    3.04990786802986
C         7.20322317139079    7.38600411973946    4.95380549968013
H         6.29266941268355    7.85505733357790    5.29171604005496
C         6.37014672452689    4.33992452471404    2.24062637900423
C         9.86149040897856    1.53100884859320    5.64851920520594
H        10.21802675411489    0.52586271299059    5.80341394944258
C         8.74977199633803    2.01247362638383    6.32142438301198
H         8.21228244103932    1.38816126369026    7.01813578236752
O         8.73212477840086    4.13075177831117    2.19680304357061
C         8.09371368347287    8.06518746935473    4.13949633999727
H         7.90851967308640    9.08006790229527    3.82924578070716
C        13.73889126719460    2.61559070941825    1.14313932778247
H        14.81176213568745    2.69203634328322    1.19941301905060
C         5.60547344141558    2.42596130919375   -1.17769322033407
C         8.33623583360646    3.31200954987539    6.08533540981869
H         7.47938698848208    3.70114738184649    6.60834557990203
C        14.77284067804648    5.01303278037878    2.63732028804127
H        15.50726915341756    4.47267309567802    2.06408468938840
C         5.55242616577625    3.92936917729442    0.99182169293935
F         7.50749197393370    2.95333236584680    0.06311447812675
C         8.65599746769007    5.48127892099035    4.84605859796232
C         9.03501740455538    4.09467604826176    5.16805387302648
F         5.66693740540833    5.27615562636337    2.92093652988959
F         6.27598909705250    1.35730200056331   -1.64829216732803
N         9.49376116669786    6.13992058108816    4.03198105640389
C        12.88637480068563    6.36883403413623    4.03699906117114
H        12.09961126953237    6.87605849773246    4.57554756196198
C        13.16071873751726    1.59116344674949    0.40910670608843
H        13.78282018674065    0.87942401650959   -0.11139930705578
F         5.46102882136349    4.97720529856529    0.15577945078144
F         3.97144092838278    0.12373029709475   -2.44448502435851
F         4.29665814006296    3.60263366716996    1.35355335007025
F         6.47937597317583    3.28126720169510    3.07972274068665
N        10.10531505810221    3.61569472822708    4.52248806291383
F         3.42462118195499    3.32888729657172   -1.14012847233871
F         3.69698973474759    1.41150577083385   -0.17763509293974
F         5.90175061006703    3.45634384043663   -1.98457899781585
F         6.09768950271638    1.61859909182431    0.99929011088808
H        10.77202526147283    5.97388296616080    0.33311000171180
H         0.48252350189252    0.92919150420469   -1.97761814956242

