40
CSD_code = NAXZER | q = 0 | S = 0 | Stoichiometry = C16H18ClN3OPd | MND = 4
Pd        0.51246609329097    3.04783979235475    4.22202382185700
Cl        0.21285408002668    1.48982356459950    5.78929850104187
O         1.49490888012851    4.05503715544227    5.62157201370295
N        -0.31660383898097    1.93397715536031    1.58290945243452
N        -0.50895804621447    1.96109434413314    2.90715401493553
N         0.90307203245221    4.46889172877980    2.81216576012130
C        -1.38807347196415    1.01169775043165    3.20103383773551
C        -1.75741823354327    0.33580314471314    2.03815562054904
C        -1.04859982568861    0.94440767172522    1.03005224955854
C         0.58733078676869    2.85639359159991    0.91952099646952
C         0.30881984853695    2.90714681854070   -0.58810546101794
C        -1.08704479053291    3.46223503202446   -0.88364033350991
C        -1.28972959091739    4.83621909487585   -0.24949850590466
C        -0.98072153680283    4.80030369886190    1.24507474472815
C         0.45714189035347    4.30335610422624    1.44589607271213
C         1.53348915905335    5.57091216060645    3.08505107032878
C         2.06427453124409    6.00122039513074    4.32257101107595
C         2.68666207626824    7.27037110014398    4.35995897883331
C         3.24144842705297    7.77120125826952    5.50205878266145
C         3.20285257496391    7.00579963101505    6.67749108079057
C         2.61650865071934    5.77454781217176    6.68653551128978
C         2.01874235607187    5.21478041941043    5.52068935580799
H        -1.69232211029904    0.84226659161031    4.21753489853453
H        -2.44001267504146   -0.48287161835300    1.94965685392799
H        -1.02215296519541    0.70776337813309   -0.01235913231576
H         1.61837182841534    2.51173417425799    1.10607337653308
H         1.10754219413867    4.91268684392735    0.79553777689573
H         1.69419911367217    6.27351964334904    2.25919392158523
H         2.71196636908489    7.85203544599735    3.44791178980522
H         3.70758530991810    8.74442368665099    5.50658760489049
H         3.64440172819236    7.39865950057360    7.58198985748916
H         2.57923870494700    5.17378216439094    7.58260796308070
H         0.43125189467499    1.91948555066512   -1.03367907220247
H         1.05797510092425    3.55636388785404   -1.04495135932506
H        -1.85061868645300    2.78382552938610   -0.50140174484609
H        -1.21963043914535    3.53387323034371   -1.96438226044484
H        -2.31812731676144    5.16316999857724   -0.40721361870747
H        -0.63199174279306    5.56244427391488   -0.73317637941413
H        -1.68009344835671    4.14753563375497    1.77397561129802
H        -1.07430491220808    5.80074266055407    1.67202533701329

