59
CSD_code = NAYBEW | q = 1 | S = 0 | Stoichiometry = C26H26CoN4O2(1+) | MND = 6
Co        7.79344455338416    5.35869670225237    3.92039431496031
N         8.46612622713742    7.03428911375459    3.10624495139446
C         7.65167364695297    7.82083791647864    2.40158537144850
H         6.62627073003895    7.49357313894896    2.31251355770844
C         8.08025511244223    8.98291252393366    1.78380335072626
H         7.37957285500985    9.58143248015027    1.22430808569518
C         9.41012671334838    9.35568957717447    1.89715266274441
H         9.77625699245282   10.25603153007380    1.42887630767186
C        10.25699857700996    8.53868443792020    2.62958234715949
H        11.30059300516262    8.78176449058280    2.74893513557302
C         9.74594463864593    7.39271029429411    3.21271321724546
H        10.37945896586654    6.74390193082169    3.80009708065313
N         6.51401488935875    6.37150407856697    4.98800638300818
C         5.21879524069096    6.05365978359288    5.02911925711612
H         4.89077810405489    5.23080703881293    4.41159360043393
C         4.29986601240790    6.73577987237159    5.80750181536888
H         3.26573125720442    6.43138081665792    5.79906749241498
C         4.72919656368645    7.79806012452691    6.58521202740598
H         4.03966629913430    8.34773805708287    7.20651888627658
C         6.07305295148967    8.13449313745922    6.53906592400283
H         6.46315308626154    8.95429655113365    7.12054162255620
C         6.92355013051219    7.40265888599814    5.73129456666014
H         7.97539964394994    7.64628318406481    5.69031713280188
N         9.02952808897910    4.30994535499561    2.86700137159774
C         9.07740894185147    4.45191439116230    1.54058082749837
H         8.43629018564704    5.20645629420114    1.10847148545934
C         9.87519410133177    3.66548532710640    0.72919041935500
H         9.86724817448282    3.82113597088746   -0.33745651771394
C        10.66852981527773    2.68688004637614    1.30546720608345
H        11.29849418776422    2.05381987721735    0.70053398947405
C        10.62584878754248    2.54387705140630    2.68297578769093
H        11.22150472361066    1.79900207006720    3.18558849709124
C         9.79641709430344    3.36862880880206    3.42087083254037
H         9.75161160187000    3.26612740137106    4.49522979991679
C         6.02001641719466    3.98421203609370    2.53221450735650
O         6.54147744956176    5.19319437186914    2.55173879902495
C         5.21236538412621    3.52858298977500    1.48947006097299
H         4.96162890547373    4.20696725986760    0.68918402395157
C         4.78467488758572    2.21575571906085    1.48103391609588
H         4.17179418356719    1.86186478935937    0.66660615210815
C         5.16941487649536    1.34126329008575    2.48653039412432
H         4.87405853884789    0.30498946463334    2.44310361917771
C         5.93767781748382    1.78356291951702    3.54885017905322
H         6.26294646195319    1.07638619081699    4.29299637284074
C         6.31875346856683    3.12008854802260    3.61274483192346
N         7.08130467016667    3.74918107930285    4.60536582115467
C         7.15043688242013    3.39240287486418    5.86953209393342
C         6.22069851741233    2.37813820699401    6.47391737893021
H         5.28489832847931    2.32507310691071    5.92319289790963
H         6.01357894111636    2.65688477962320    7.50485001593303
H         6.67731212042133    1.38956010206773    6.48815222838012
C         8.08859848477670    3.96290601443967    6.75113308843512
H         8.10763141685161    3.58200157581191    7.75916833561859
C         9.00569322134314    4.94218250388602    6.42357542661570
O         9.06485893471357    5.55327655887895    5.30000999527492
C        10.02089617811285    5.35654627559760    7.46045463930938
H        10.59648254539701    4.49646618786078    7.79375353267927
H         9.51527768565564    5.77771826152970    8.32662769357792
H        10.69482178341374    6.10063663288322    7.04509520559905

