37
CSD_code = NAYFAV | q = 1 | S = 0 | Stoichiometry = C12H18Cl2IrN4(1+) | MND = 6
Ir        9.40971043275217    5.39780946397732    1.95077326536589
Cl        7.07873859206449    4.96960974233687    1.81214288871357
Cl       11.73305329887814    5.66836763595056    2.35194051786335
N         9.20619399037773    7.35760654943943    1.44373716779233
N         9.66950707656549    4.95750982388451   -0.01848659143129
N         9.10352278049485    5.71787705390740    4.01714232079834
N         9.64926117759170    3.40570113844487    2.61293858638640
C        10.16364070851042    7.99215190631318    0.75947354863797
C        10.07527985670260    9.32937703804673    0.41783546602324
C         8.95207638591208   10.05068675187919    0.79076465644978
C         7.95634883262931    9.39097960305023    1.49408415966645
C         8.12102328155552    8.05260633646506    1.80060885542969
C         8.74898741877514    5.30024060349003   -0.92550223197895
C         8.87746239887652    5.00008544917342   -2.26941784657566
C        10.00340096757947    4.32036047082812   -2.70659633041770
C        10.96077711095527    3.97080166403788   -1.76717310220141
C        10.75710941327467    4.30405709384690   -0.44059221703672
C         9.57771971947097    4.53169335043517    4.75106258965647
C         9.11363835333809    3.30016895062915    3.98118334828003
H        11.04055088697256    7.41925283710122    0.49454708164188
H        10.87988839843944    9.79215426460838   -0.12996156183024
H         8.85520610434465   11.09518605333049    0.54006167426485
H         7.05964498315929    9.90204217792124    1.80480445416144
H         7.34370076252276    7.51150144551729    2.32126202922576
H         7.86874697433239    5.81184676111948   -0.56383490773709
H         8.10134324972215    5.29556710659419   -2.95645025035245
H        10.13156923744488    4.07145305824517   -3.74815633598816
H        11.85792141099804    3.44573797617157   -2.05239241984044
H        11.50462066824386    4.06801035595911    0.30339637027473
H         8.09343579025641    5.80693012652601    4.15380605961697
H         9.54836198027750    6.55253889306229    4.39877670984020
H        10.67007578383215    4.56050531986410    4.77651966464583
H         9.19748817042894    4.51318455379805    5.77648816108666
H         8.02228330709326    3.29314910606627    3.92022833913256
H         9.44921151773559    2.38453202565836    4.47654623145570
H        10.65643278557785    3.22660152905368    2.63943568230833
H         9.21726619231323    2.69391578326664    2.02400396667266

