176
CSD_code = NAYJIG | q = 0 | S = 0 | Stoichiometry = C87H82N4O2Ru | MND = 6
Ru        1.81875481017362   14.03939422742593    4.46624260601510
N         2.90000592856111   15.67969977909530    5.00072180518235
N         1.97461951640735   14.58964416534023    2.50506185508480
N         0.94352091243134   12.28747270189067    3.89261892611080
N         1.89985550675469   13.36487629630081    6.38154567869800
C         3.32900811323904   16.67160432995576    4.17627370980671
C         3.98765105299904   17.68941451143502    4.94870103527578
C         3.94896607636769   17.28829556535952    6.24093434626618
C         3.26091840232187   16.02650040877825    6.26519122710654
C         3.04905669454730   15.26872792218614    7.41614809479397
C         2.41935802882739   14.02631949894922    7.44825991417119
C         2.20271045449341   13.25906362048425    8.64540582826524
C         1.54261060952902   12.13706230148166    8.27671073309005
C         1.35610908227738   12.21289454291160    6.85295634756400
C         0.71557208091089   11.23549542656842    6.09572221420438
C         0.54525859625950   11.27994243387945    4.71443174323639
C        -0.06601829636563   10.23782625775640    3.93827391165861
C        -0.02741730991762   10.63638470920415    2.64458675505476
C         0.60022064551369   11.92893170846061    2.62527628131312
C         0.84439471566792   12.67033530025984    1.46894231903761
C         1.48972667924814   13.90618704378196    1.43218472697138
C         1.75340867421703   14.64797977117900    0.23054594071632
C         2.40798464813749   15.77436763933962    0.59913761059541
C         2.53463325678941   15.73537844045276    2.02972202587514
C         3.17047859153662   16.71516994751256    2.79161650891061
C         0.22478825127407   14.88660671133326    4.72723839090779
O        -0.79340398196402   15.40099822266557    4.88694942106126
O         3.73208299886173   12.80814677060682    4.02094682982862
C         5.00379082217945   13.34116106857731    3.66302222863668
C         5.74284054175535   13.73716043893651    4.93076435609727
C         3.53745713895193   15.82429445195149    8.69755485084201
C         2.88659737745591   16.86494722824823    9.34315060422336
C         3.34285641451267   17.38724871893943   10.55500927269699
C         4.48303928089608   16.90908066815632   11.17422696399656
C         5.13999277037151   15.87639281307020   10.53113663308010
C         4.67358542984241   15.34080093950966    9.32920289318044
C         1.60689605919776   17.58113510634550    9.01659864909009
C         0.57301410213188   17.05330917517150   10.03417698925981
C         1.07208196204418   17.63093786215497   11.37403487701491
C         2.33506725546302   18.42335380077207   10.96956527557747
C         1.91112511227409   18.96695776323961    9.59902500922655
C         5.66276815100871   14.28841668396831    8.91241716653292
C         6.92635571371463   15.06062974221489    8.47742571307279
C         7.44585141021640   15.65532565592097    9.80228576837253
C         6.42097742588078   15.15232572148485   10.84307216361006
C         6.09823022251861   13.76060625910413   10.28475260695580
C         0.15597506659504   10.06777543722090    6.81497179017950
C         0.85455131788749    8.88338888045513    6.98774119255342
C         0.30920666286328    7.79414995981453    7.67051403545544
C        -0.96564755841945    7.82946795063673    8.20443326474036
C        -1.66872715355011    9.00734524764831    8.02998657081963
C        -1.11934503016792   10.10043191426881    7.35757338717179
C         2.25340590797435    8.49402411976141    6.59928932202726
C         3.06192658318907    8.47439842534811    7.91364868622586
C         2.45875585982889    7.27829347574047    8.67730605668426
C         1.38397240326204    6.74247490754288    7.70554873300478
C         2.06194194105738    6.99241832579133    6.35214611919489
C        -3.07149785672521    9.40637522524475    8.39661116207561
C        -3.85340733504317    9.44386321993897    7.06453827976237
C        -3.24494754709491   10.65579874223702    6.33040502489672
C        -2.17729760054859   11.16639818454488    7.32108860223014
C        -2.87467003256157   10.90475582923157    8.66201326121674
C         0.38469803080020   12.09766089499320    0.18510529089138
C        -0.96114813604609   12.02540753681865   -0.14352596794033
C        -1.40197172348947   11.48663703443775   -1.35377366257450
C        -0.52190719639440   10.97756840220075   -2.29085769691794
C         0.82045407562614   11.04059754220550   -1.96598686286274
C         1.26340170211781   11.59423019184098   -0.76337175787023
C        -2.18056710766991   12.52722878582162    0.57671689303117
C        -2.63870772043950   13.77145996968193   -0.21373914364819
C        -3.12953215906606   13.17846214795319   -1.54981929814802
C        -2.89516528138925   11.66203634225220   -1.37115313043837
C        -3.21511070941203   11.49152339221348    0.11954184197365
C         2.75856151408831   11.43117817319506   -0.74105403916676
C         3.00670777764816    9.92094227765717   -0.53997600250218
C         2.51809103200505    9.30704737256791   -1.86766251930308
C         2.04781920427955   10.53715985388319   -2.67494196343678
C         3.07592775968880   11.58598511183452   -2.23313630282401
C         3.73517026537771   17.87541051323375    2.06913748488693
C         2.93255442317271   18.84307951534006    1.48230009328652
C         3.46788774044041   19.93104551315568    0.78981793881907
C         4.83119628503591   20.09770711320706    0.63046032178685
C         5.63602409680489   19.13344841722827    1.20835768652874
C         5.10284951348641   18.05712681051944    1.91975964168034
C         1.44166881851256   19.03083383707299    1.49608368909532
C         1.18766486958906   20.21406460535642    2.45433289003097
C         1.77565601308132   21.41777980456681    1.69075552443238
C         2.29933759803575   20.78504775748393    0.38246430104920
C         1.23660129668905   19.70680848438242    0.13470974498243
C         6.26596448762197   17.20213498415767    2.34214374835975
C         6.77964926215959   16.53727522240881    1.04737657900992
C         7.36833120950304   17.72293784398407    0.25587430753728
C         7.12610926222108   18.92879863155642    1.19078720208599
C         7.33468538897891   18.27904812701538    2.56421283642191
H         4.41472665249208   18.58581215518259    4.54296385371691
H         4.34420902375984   17.78600050687559    7.10522263652867
H         2.51566059681396   13.55647472193195    9.62759693853883
H         1.20064500300806   11.32939020876983    8.89505250960926
H        -0.45637759518163    9.32389841495552    4.34289220027905
H        -0.38157643293911   10.11491328382520    1.77654369880492
H         1.47075797476674   14.33617615717406   -0.75604121059397
H         2.77564008480900   16.56366558044105   -0.02721186673806
H         3.38669388391655   12.29108232836851    3.27695912430710
H         4.88123800592486   14.21172271988021    3.00225094882016
H         5.57328319854592   12.57069185896446    3.12560936252777
H         6.71191299618005   14.16053546573735    4.68119379365339
H         5.16537851432138   14.47358955843603    5.48431504134447
H         5.88778388162905   12.86461314913369    5.56353967338455
H         4.83970111164367   17.31826534151719   12.10819147514757
H         1.28492008481960   17.52878988941854    7.97921979191803
H         0.54102372439852   15.96431662974990   10.03421523970417
H        -0.42212057166496   17.42312683127034    9.78843972835255
H         1.30821863341740   16.85270147298364   12.09915554693736
H         0.33333991944702   18.29839147135990   11.81785564067907
H         2.67015400716374   19.14413331761110   11.71245487027030
H         1.03794471728072   19.61596455134522    9.64506756765755
H         2.71928815913633   19.47772707116997    9.07645963928261
H         5.30343239555515   13.56157703459666    8.18778554770708
H         6.68703663616970   15.82842151720600    7.74222933169052
H         7.65492015828845   14.38049742572717    8.03556321935194
H         7.48529320499965   16.74380666367005    9.78016910534480
H         8.44199653977980   15.28208121572232   10.04061356565760
H         6.76314464948380   15.21075297689867   11.87400952802314
H         6.96548480295500   13.10307947116620   10.23890138009207
H         5.29116060680372   13.26446776216166   10.82249729061078
H        -1.38824255615182    6.98426955190197    8.72793282498854
H         2.70274299096943    9.08263017551306    5.80210687642329
H         2.95863877929394    9.41315600639089    8.45638598571790
H         4.12047328122369    8.31669685435759    7.70500765793890
H         2.01855193562407    7.57402064577639    9.62903264566258
H         3.20992548434633    6.51257486531004    8.87194742863149
H         1.05208731291810    5.72861470141943    7.91860018723248
H         2.99969495878423    6.45080530726903    6.23370831616613
H         1.40818405427971    6.78263033612656    5.50616908455250
H        -3.54560056048524    8.81738413546623    9.17890779415107
H        -4.91707812895603    9.58817409429001    7.25427222219431
H        -3.72929255353262    8.51598724910710    6.50685351570555
H        -3.99303498920754   11.42788678561166    6.15190700571512
H        -2.80000486604501   10.38630489901364    5.37325189164117
H        -1.82455928858690   12.17601359523222    7.12286189744921
H        -2.23106609861101   11.10250864952723    9.51849144516955
H        -3.81132630086388   11.44875956184433    8.77410670976916
H        -0.86321673694717   10.55456431540241   -3.22430894080111
H        -2.06823265959440   12.68975291086423    1.64593040547269
H        -1.81999712111050   14.47802142701805   -0.34572954770733
H        -3.44469557211955   14.27905416111605    0.31549893479026
H        -2.57616461040021   13.56671598579620   -2.40436513318789
H        -4.18879424454801   13.38090058789144   -1.70826848970156
H        -3.44036911086313   11.03700071404292   -2.07521619669461
H        -4.23821305627629   11.76377535394846    0.37403694803275
H        -3.00175309488278   10.48850201571379    0.48775276434555
H         3.29773610249329   12.07605354592478   -0.04940889781869
H         2.45645204813127    9.54018317300968    0.32048303223895
H         4.06804956226672    9.72592517261827   -0.38185783547429
H         1.70597101262940    8.59613856883202   -1.72039403613996
H         3.32805828054017    8.79774206695269   -2.39002698970883
H         1.94256877251864   10.35924040543278   -3.74278718984096
H         4.10115854381946   11.31858689279026   -2.48640305030624
H         2.85435910147620   12.58330831892989   -2.61120953077060
H         5.24431009069331   20.93363332459328    0.08512231577574
H         0.85244415603876   18.14286285657071    1.71185323212682
H         1.67187645611362   20.05260198454687    3.41677385267107
H         0.11881649176644   20.33717810631545    2.62707410160797
H         2.57751658446753   21.90757868963562    2.24237864370803
H         1.00904136774736   22.16077554956944    1.47069805695228
H         2.48592611641603   21.49774411884400   -0.41810031728689
H         0.23478990185617   20.11240532408604    0.00201847620339
H         1.48039419487787   19.05495349496546   -0.70366251048738
H         6.07697609081479   16.51304650002691    3.16247480975742
H         5.97193345298212   16.04016843929334    0.51016334730189
H         7.54533178939285   15.79539816793194    1.27720300365190
H         6.87656255294285   17.86292922970922   -0.70605883870273
H         8.43553159745765   17.58942854107448    0.07811171170617
H         7.72541919692374   19.80553728359767    0.95564975662674
H         8.33570933202290   17.87173795082537    2.70107995760870
H         7.09591623653844   18.94743424663163    3.39051152753156

