84
CSD_code = NAYLEG | q = 0 | S = 0 | Stoichiometry = C36H43BrNiOP2 | MND = 4
Ni        3.74482097575846    5.11239655356835    9.75718177070326
Br        2.16721565932344    6.71011658129660    9.97040180869033
P         5.35496299854976    6.52122443989955   10.02780452784870
P         2.33286195093585    3.55798798423629    9.26014882421146
O         5.86379770477883    2.14232947685091   12.89072004315811
H         4.74183633399420    4.13386358506088    9.54649695309581
C         6.72899982416350    1.85358128396812   14.98802240404803
C         6.79865340035213    2.57905795046795   13.78257608789290
C         7.75093054079626    3.57977973443381   13.59356130280023
C         8.60654515212524    3.82096336285111   14.66823082530848
H         9.34084977571662    4.60667536698190   14.57121109612045
C         8.53564528954435    3.11451365369415   15.86109578659490
H         9.22505779631941    3.35342741491595   16.65685849415265
C         7.59719605311809    2.11860160617522   16.03728939047643
H         7.53374655883210    1.55946102557026   16.95754074613260
C         5.66641879943841    0.90555985335146   14.80428204191945
C         5.18278195912637    1.13035728516096   13.50050196008522
C         4.15935458359968    0.35032962184065   12.96334472501142
C         3.63134687271604   -0.62928175029308   13.80395693769073
H         2.81566149947137   -1.23377271002330   13.43633789390963
C         4.09274803374889   -0.84220746004412   15.09575282130050
H         3.63748348103303   -1.61451324750634   15.69726981232976
C         5.12256693244485   -0.08282909164835   15.61188591785359
H         5.49776570097406   -0.24485249771281   16.61014706974075
C         7.88349422584516    4.39644580254698   12.37861940531609
C         6.77443667714903    4.91218536527018   11.72053621551830
H         5.77991801006685    4.61628344195189   12.03277149822493
C         6.91328634368075    5.81933812189696   10.67453250791336
C         8.18752370171264    6.16536959525217   10.24227754447010
H         8.33013461981247    6.86554865781144    9.43379783041034
C         9.29848379089246    5.59787171610218   10.84264410769515
H        10.28670717447642    5.84649740482996   10.48284520924970
C         9.15334919252676    4.73537934322598   11.91111649330775
H        10.02711280254528    4.30653104301127   12.37901256405047
C         3.61468912948026    0.50124064699183   11.60668002790701
C         3.36348669889519    1.74804200499302   11.04716936778641
H         3.64989129125736    2.64691957500894   11.58057079796776
C         2.72980368657780    1.86719497519137    9.81554846857861
C         2.37368390558656    0.71981466690479    9.11611332774168
H         1.87228554273880    0.78706504277674    8.16262062979988
C         2.67513665067363   -0.52598459488615    9.63751677701710
H         2.42343620144021   -1.41662396959989    9.07955492685163
C         3.28032845911419   -0.63785500782733   10.87407252145951
H         3.51062183516461   -1.61495247764011   11.27214403505634
C         5.85167720193572    7.36199764076387    8.44341750448148
H         6.75508619945572    7.95022398920576    8.63839996774733
C         4.75739275259228    8.29644761805801    7.93736677196423
H         5.05021599998103    8.72536877825881    6.97975106180652
H         4.57222876878566    9.11082262103736    8.63383040716886
H         3.82281909833293    7.75753235501612    7.79411660229527
C         6.15542504565525    6.28098770847035    7.41012085373133
H         6.50974252467247    6.72340199718097    6.48000486752469
H         5.24731736532866    5.71664412147175    7.19445891185897
H         6.90932229630864    5.58473329534117    7.77641751248045
C         5.10228534720195    7.92984486487272   11.22932983513168
H         4.24004162189631    8.48703006838982   10.84512293505390
C         6.30473656496691    8.85845019275534   11.34042302521569
H         6.09515306413094    9.62718952602707   12.08274353544106
H         6.51957103080315    9.35564745866627   10.39763115636173
H         7.19175029105858    8.31296983289488   11.65982244691860
C         4.72429801209138    7.35887135297230   12.59334530422803
H         4.37647531411395    8.15356397794450   13.25058918469445
H         5.57799947788671    6.87160306859581   13.06321561858389
H         3.91677362816980    6.63193544379895   12.49241837442287
C         2.16222953689726    3.41285909366585    7.41305535069140
H         1.36992123684588    2.69365372435292    7.18021991396488
C         1.78276432993590    4.78018843002544    6.85160535431690
H         1.71264032568147    4.74385831414330    5.76529197941258
H         2.54500870054116    5.51479432257231    7.11869906346269
H         0.82964284137676    5.12411899297182    7.24907975889300
C         3.48096413634801    2.93301139155510    6.81417336304299
H         3.41082548559917    2.89251354936203    5.72781150491759
H         3.75024432912245    1.94480759296755    7.18252448125356
H         4.28455621025256    3.61955654170929    7.08064325621536
C         0.57841731384773    3.70714477515478    9.89205487547700
H         0.22491777830662    4.68829378698355    9.55480714008059
C        -0.37240071841179    2.62829792537867    9.39122440370671
H        -1.34922959949816    2.77871631336692    9.84878561273041
H        -0.02074749170972    1.63543538697596    9.66727779584935
H        -0.50260043433866    2.67154190319894    8.31251573311911
C         0.63019303396429    3.71696149185249   11.41820235523509
H        -0.34334787603347    3.97973396455581   11.82706712234637
H         1.35024192175703    4.45549974703637   11.77180642884934
H         0.91648951747640    2.73876546379830   11.80406513182305

