74
CSD_code = NAYLAC | q = 1 | S = 0 | Stoichiometry = C39H30CuN4(1+) | MND = 3
C         4.67188683195084    5.43652138600280   12.77520524285844
C         4.46256786333086    6.32451852988749   13.83062404490511
H         3.57556630375837    6.93960752437673   13.81911577870904
C         5.34740605670902    6.41266295972814   14.88537369100070
H         5.16246540367697    7.11595666134875   15.68215897333038
C         6.45660719477517    5.58276200484700   14.92550251812890
H         7.15588940955520    5.64320484196118   15.74367551166416
C         6.64757203846724    4.65774843513722   13.91878783225643
H         7.50278262465140    3.99927073720006   13.95150516026530
C         5.77693371187247    4.56790191289039   12.83083127122292
C         6.12283259834100    3.58118689408437   11.78968566376976
C         6.45643876289591    2.21995641004121   12.22192317517009
C         7.28023555929286    1.40357981167322   11.44138157261755
H         7.72819862190290    1.78811910140184   10.53573085767285
C         7.57372815407198    0.11397832746526   11.83849092564035
H         8.22156614321162   -0.49885392232752   11.23081060245631
C         7.04283271998929   -0.39081888194694   13.01497939785819
H         7.26981996487345   -1.39998677782579   13.32137053991278
C         6.22758892222589    0.40862718190943   13.80067403041148
H         5.81695394745423    0.02175434317266   14.72069763240739
C         5.94158762344850    1.70332249137692   13.41447375440415
H         5.30812212688058    2.31683336507394   14.03596765902222
C         3.28220097094360    4.21283265755238   11.20503213865180
C         3.14116445167658    3.13906870176398   12.08461291071732
H         3.35080326803602    3.29851963491372   13.13148357954920
C         2.72257544266606    1.89910537610644   11.64817756198198
H         2.63261537152703    1.08620351167108   12.35163702643155
C         2.39946658138433    1.71112669863541   10.31359747970831
H         2.07112246386781    0.74692548193180    9.96051851861735
C         2.47891052769393    2.77747702486509    9.44062607981056
H         2.21668890938570    2.64014140267120    8.40212943277887
C         2.92389263157321    4.03414952149451    9.85639600936610
C         3.02762040322862    5.07332709940085    8.81414912284890
C         1.87917311187380    5.26511176067353    7.92217314004596
C         2.05100087452762    5.78819819368278    6.63719310093381
H         3.04269655077972    6.00277025075958    6.26424066153276
C         0.96510985945461    5.99204306767231    5.80876326445833
H         1.11624304962390    6.38456105880588    4.81495370624158
C        -0.31376354755474    5.68985882010169    6.24904367926552
H        -1.16123115440456    5.85454255367651    5.60209833978120
C        -0.49849637977885    5.16667508900082    7.51911283726451
H        -1.49190262432337    4.92384997705435    7.86379462300206
C         0.58548225953851    4.94814512699140    8.34637358710476
H         0.42932945036985    4.53690331851913    9.33161309015524
C         3.12632152004454    6.63247923996886   11.33610777462531
C         1.75438650809365    6.61360941954592   11.08378165255814
H         1.21401065879223    5.69179414367461   11.23708884632277
C         1.08213824794762    7.74430222588568   10.66787921365985
H         0.02255920764632    7.69530328742739   10.47130408522344
C         1.76737095263973    8.94057565225882   10.52575317369254
H         1.25310332294254    9.83051510599665   10.20060045419047
C         3.11352081441137    8.99038027800469   10.82766677119801
H         3.65018772894943    9.92254639834318   10.73190979299122
C         3.81756643139358    7.85258439863625   11.22669915939684
C         5.26533213378615    8.02064222064913   11.45892153863995
C         5.69756353398901    9.13305317740934   12.31125119909205
C         6.97712552767401    9.68092014768934   12.17998065394413
H         7.64442821601860    9.32900012774397   11.40570839317947
C         7.39071580520682   10.70989631906724   13.00278908329132
H         8.37733007255164   11.12962335553261   12.88029363639116
C         6.54161808406417   11.20553494175040   13.97964480775236
H         6.86850504998793   12.00617582828044   14.62466617400323
C         5.26862124244807   10.67533735222372   14.11801881885315
H         4.60158550805923   11.06251293488899   14.87289773675933
C         4.84565236187078    9.65491863186956   13.28917824147861
H         3.85104609049619    9.25289716454193   13.40461100275394
Cu        5.61977634159600    5.65827699236686    9.88246736382905
N         3.75346072272350    5.43393050079386   11.71299148802918
N         4.12804250363123    5.72382919909224    8.67801558141671
H         4.13493567016512    6.40065387601829    7.91946396375092
N         6.09296948792773    7.23760660981726   10.86371161868464
H         7.07418126871072    7.43140818969397   11.04569392033095
N         6.18417817651896    3.95430153640691   10.56115853593691
H         6.45758175429130    3.22750107899741    9.90505959209364

