102
CSD_code = NAYNOS | q = 0 | S = 0 | Stoichiometry = C39H58ClN2PPd | MND = 2
Pd        1.48826751253756    2.50862629701452    5.29013953531410
Cl        0.21121193712065   -0.57448091924799    3.65511085571458
P         1.02461366910125    1.23416003403204    3.52030105480242
N         1.18938133081605    4.81846776337756    7.17729770102584
N         3.11959756270081    3.95871638146385    7.51902397047841
C         2.05707750049281    3.91112894106364    6.69753221050207
C         1.70437454904938    5.43987095307314    8.28890911177021
H         1.16862013182593    6.19759404717541    8.82350117485892
C         2.92689850124723    4.89838871678272    8.50329079960959
H         3.65852238987622    5.09296466291578    9.26097498524075
C        -0.09461724589331    5.04576220478818    6.60345796282989
C        -0.22236994503397    5.93945346797535    5.53541790814337
C        -1.49300312751003    6.18774497738120    5.03407187540493
H        -1.61797136216061    6.86785338920390    4.20643063267311
C        -2.60170026458461    5.56408688447454    5.57215699480068
H        -3.58412480551530    5.77591901922581    5.17606929905143
C        -2.45290130875395    4.63978382206980    6.58786354715868
H        -3.32035264446988    4.12040436615975    6.96282228512820
C        -1.20083684141550    4.36111879449113    7.11866093199668
C         0.99851341801262    6.50624311039502    4.85210119373912
H         1.85950691070937    6.41430640279456    5.52202287593719
C         1.25879283155012    5.63668303228697    3.61643828674880
H         1.36492158409535    4.58170768452378    3.93021527033253
H         2.16695750106562    5.95014827168159    3.10675857803788
H         0.42339299764609    5.71036602185831    2.92331648108552
C         0.85553914376051    7.98044957058430    4.47761061312187
H         0.55953309848892    8.56949176271972    5.34343503872814
H         0.11619954084115    8.12209941572912    3.69378236319234
H         1.80716189940672    8.36045082004330    4.11157533799855
C        -1.01686282331492    3.24504281402827    8.11898202545592
H        -0.05401676721561    3.37140514621296    8.62590682362510
C        -0.97367451800572    1.93401962761874    7.32298852576342
H        -0.76371872675879    1.09450240209160    7.98232486352084
H        -0.18221662996183    1.99512687233034    6.54135043881370
H        -1.92888617849903    1.76153950916295    6.83035007689878
C        -2.10125323719265    3.20557102306783    9.19469894631663
H        -2.20895348117515    4.17953220150116    9.66840022086254
H        -1.83335633282964    2.47873230184055    9.95877845362728
H        -3.06214991852423    2.91320260672672    8.77959046188004
C         4.26697967027127    3.14207757140605    7.32000898196161
C         5.36820182916892    3.68040289640500    6.64552624808242
C         6.45953610003576    2.85858440361998    6.40737114813427
H         7.31735596121933    3.24250504628004    5.87873506300583
C         6.45499341324368    1.54058050450669    6.82550127939933
H         7.30904574586376    0.91088018416855    6.62325195913470
C         5.35855353556319    1.02379970580669    7.48535384749893
H         5.36255845850735   -0.01094260103438    7.79058484214529
C         4.24614404499281    1.81378612000305    7.75086316653172
C         5.30502738479920    5.08847926388959    6.10158553762997
H         4.62472448108421    5.67707839171344    6.72693534421052
C         4.71567778198639    5.01727223656386    4.68921686718324
H         3.78226052196655    4.44757807986572    4.70604807792481
H         5.41123801856028    4.52049276366047    4.01638545519112
H         4.51501016937851    6.01579960571162    4.30749167749501
C         6.65476550905510    5.80369669304964    6.09611863903744
H         7.12752324511331    5.74155897451404    7.07418349117172
H         6.51112222158376    6.85358256452930    5.84895637133581
H         7.32674993070044    5.37694724320620    5.35594492369905
C         3.04349802421633    1.22249550144707    8.44861928354087
H         2.35071327386074    2.02949746617908    8.71144892413669
C         2.32108781992058    0.27323440244874    7.48716543261446
H         1.97861415905302    0.84280889384164    6.59663219398542
H         1.45845221479280   -0.17584169456706    7.97507351631465
H         2.98722786185024   -0.52186773183495    7.15871855149154
C         3.43389416813577    0.50801275902408    9.74367344728635
H         4.01374003147849    1.16756592219051   10.38680797576335
H         4.02391029260273   -0.38205661988463    9.54202706341877
H         2.53809484835407    0.20331123056682   10.28079324418261
C        -0.08734226292545    2.08185977116269    2.30305122390371
H         0.48258303102120    2.94787443015082    1.94369588696365
C        -0.56725652230311    1.26179033245438    1.11371670512500
H         0.28510419716000    0.91761258337544    0.52192194284053
H        -1.10928841703637    0.38180601323972    1.46698355392938
C        -1.49693088858976    2.10888391949588    0.24613092228801
H        -0.94147195012798    2.95938213262394   -0.15778646676111
H        -1.85779389723304    1.51493388814464   -0.59658790619044
C        -2.68004259699440    2.62123587528254    1.06440283798534
H        -3.33085224003019    3.22955250753487    0.43233991634552
H        -3.26338469561007    1.77050110297880    1.42438377356126
C        -2.19643591388790    3.44078407006610    2.25866470299013
H        -3.04780545810057    3.78531115818405    2.84909356313768
H        -1.65985005414953    4.32257738209178    1.90002884687776
C        -1.26805557875826    2.60210341902316    3.12654988179591
H        -1.82236552553734    1.75190132290530    3.53640695498133
H        -0.88637142371452    3.19572934971120    3.97280982664594
C         2.62563100202785    0.85551611738909    2.65958281343053
H         2.50076509246640    0.15856474797597    1.82318177838623
C         3.23208545961124    2.17877285958924    2.20271763168930
H         2.65144681537577    2.60165623068887    1.37936271972113
H         3.18115185540638    2.87336232994704    3.05653537656621
C         4.68408362697402    2.01656972211669    1.76388136080781
H         4.72670131305391    1.36407046391346    0.88732918096693
H         5.08664709913963    2.98999510103565    1.47357020856974
C         5.52674230484009    1.41287477107211    2.88220599592823
H         6.56095876856257    1.29546823168233    2.55093006873050
H         5.51896286272242    2.07963560444428    3.74756430766816
C         4.94705021504705    0.06648856902245    3.29827013683751
H         5.53836666279509   -0.35934773685572    4.11170399837178
H         4.98289203095919   -0.62809398425438    2.45468933101404
C         3.50663601898126    0.24921708161782    3.75587383878559
H         3.09022071607053   -0.70779177859173    4.08288561914896
H         3.49409978372490    0.94669823284160    4.61512720108255

