47
CSD_code = NAYPUB | q = 0 | S = 0 | Stoichiometry = C20H19ClF3IO2Ru | MND = 9
Ru        0.66763629494927   11.98094246643876   14.84359663672860
I        -0.55968121479463   11.48973329215747    5.92262002927798
Cl       -1.64815165068631   12.10335347689376   14.66995296929941
O         0.33510521056186    9.96939010871705   15.08806194138256
O         0.55935939769647   11.75302268626341   12.81016608606125
F        -1.43987542584611    7.28604433094826   14.21368119690712
F         0.65653990897756    6.95621336402966   13.88581036851718
F        -0.04218441715049    7.53660683402672   15.83383491237958
C         0.07481197730907   10.75623942795550   12.21352338511672
C        -0.03403568375819    9.22407453717704   14.14220457377101
C         1.25898974799326   14.17710553045242   15.24852824159571
C         2.39514285300679   11.80988821977535   16.40230572359548
C        -0.08817378897690   10.89309494525392   10.74501271625998
C        -1.10012218421316   10.23458357492480   10.05027042176595
H        -1.80365096635475    9.60895251330972   10.57580585947474
C         2.92221613230154   12.35550482450843   15.21865318439602
H         3.80930314622194   11.92146306862465   14.77300033317223
C         1.27380078588759   12.44068291665026   17.00054695834885
H         0.88712773490947   12.06048931847353   17.93948337205560
C        -0.36027822135008   11.24012151889000    8.01143334317820
C         0.71097631820142   13.59433161199879   16.42359382386342
H        -0.11653858690950   14.08981093012294   16.92268455699342
C         0.76815631370481   11.74565996303384   10.04972836566214
H         1.54073164012889   12.26809877766181   10.59295959282888
C        -0.24288912213200    9.51190729261691   12.80469325267362
H        -0.58128951443088    8.71024608340566   12.17009004476565
C        -0.22400900818373    7.74737121902103   14.53111575155488
C         2.34718975057707   13.51666649218627   14.64476820006483
H         2.80908495784692   13.94321535965270   13.76110004939094
C        -1.23807159695269   10.40934909621565    8.68603876058080
H        -2.02782316128273    9.90131255020337    8.15436591319269
C         0.64258162710078   11.91554496832156    8.68543085171651
H         1.31644810668950   12.56939902119034    8.15342887288681
C         0.68084283354120   15.44668009901686   14.66861493551858
H        -0.14566502647897   15.76615893794693   15.31217251084645
C         2.99818811269421   10.60170502544489   17.04722304149969
H         2.26021893697524    9.80023402590120   17.09297915103181
H         3.30202030858835   10.83343966932363   18.06784081408101
H         3.86255757640455   10.24678500739678   16.49117353728266
C         1.72994560808494   16.56176560392844   14.63894786876014
H         2.13152123722111   16.73868586169856   15.63463867735673
H         1.27616990837085   17.48253224788925   14.28202659279704
H         2.55262508664377   16.30842269529678   13.97455333074043
C         0.11435521672901   15.17463376533503   13.27209836372873
H         0.90801658545577   14.93088128971769   12.56959875038357
H        -0.41419220877449   16.05063343570876   12.90522742226391
H        -0.58313153649895   14.33722201428195   13.31241471425513

