68
CSD_code = NAYREM | q = 0 | S = 0 | Stoichiometry = C31H34CrN2 | MND = 7
C         3.30247945992367    5.86896671760853   10.23352385355304
H         3.26312248025544    6.58229703116271   11.05593071225006
C         4.06585609235342    6.23668096911740    9.11065631655612
C         4.71232432843578    7.49426000595777    9.12614888977251
H         4.59035969249549    8.11387805030720   10.00408709311494
C         5.47023229435388    7.93647766837481    8.07826748792868
H         5.95153853708326    8.90203458561382    8.11827960512020
C         5.61684288347743    7.12807698812560    6.94634049813654
H         6.21055655049772    7.47140979587907    6.11216814871185
C         5.00868402935888    5.90153464166579    6.89129108939146
H         5.12661441823095    5.28721364879130    6.01016314124343
C         4.22229581543108    5.40696659372288    7.95457337517929
C         3.86555585796358    3.41143645242550    6.74687692619824
C         2.96865264432557    3.42189574637808    5.68066536459765
H         2.10571378840092    4.07231254164390    5.73124616920787
C         3.17937242266821    2.61043125883810    4.58232342330676
H         2.47009206082378    2.62413713493074    3.76676622980706
C         4.29109915028193    1.78052737538372    4.50709599224068
C         5.19570854357128    1.79021078242898    5.56332051736180
H         6.07127828269290    1.15803563094526    5.51791654702422
C         4.99441199722107    2.59622839640199    6.66602661472942
H         5.70098379421747    2.60129784336015    7.48500797375663
C         4.52942527436068    0.91571889232969    3.30617308664481
H         5.21259183667909    1.41300990956086    2.61651330707973
H         3.59967727967550    0.71948169840564    2.77761895418730
H         4.97812691228328   -0.03248909503101    3.59477176657297
C         1.93184431522564    4.60014192683941   11.58457205238835
C         0.61685017002575    5.07608881435015   11.68077629512421
C        -0.04026086824125    4.97204806296935   12.89827616063264
H        -1.04942211001181    5.34048365549473   12.99553102083356
C         0.58499428018193    4.41289235937184   13.99679958173029
H         0.06372431632396    4.34991653797039   14.94069274825700
C         1.87789440182913    3.93544839607504   13.88883132956061
H         2.35491879005072    3.50196974999729   14.75387043992678
C         2.57001352261403    4.01984999793949   12.68975170811889
C         3.98827078224116    3.51051484687219   12.56645153300324
H         4.19990721416298    3.35815542485997   11.49708876594152
C         4.18714938408989    2.17440919981625   13.28395509976825
H         5.14482551378306    1.74253702837405   13.00089350215122
H         3.39825384432593    1.47463323027028   13.01825038459874
H         4.18562556155936    2.30257229014402   14.36361269373929
C         4.97161781848065    4.55377982087017   13.10455888607332
H         5.99063966895077    4.17862574501232   13.03926273712488
H         4.75043449534678    4.78091024654052   14.14554348781504
H         4.90704142116910    5.47277921823390   12.52769116024437
C        -0.05584366580094    5.69968456042818   10.47855801412730
H         0.46613881881329    5.34149363518176    9.57844008852607
C        -1.52950733939159    5.30415961410412   10.36749721642058
H        -1.90716646172444    5.56010628513720    9.37979532571231
H        -2.13431172939972    5.83044209827585   11.10225770312979
H        -1.65546834352451    4.23491805915784   10.52149327370785
C         0.07325073105556    7.22507794246845   10.53202634754645
H        -0.45013798722957    7.67509041723040    9.69125535671590
H         1.11728748947586    7.52338355926959   10.48410177053538
H        -0.35648710585706    7.60922114318356   11.45526329705939
C         0.59901371435378    2.21153580666517    9.26285320855047
H        -0.40718978707806    2.60234744394462    9.26679661184282
C         1.32730379042229    1.82703390083004    8.11068688255071
H         0.96171392061759    1.85787546742797    7.09450237649824
C         2.50697529914550    1.18877077637037    8.54133592795520
H         3.21154618057217    0.66816328164353    7.90900490433413
C         2.50739559064575    1.18315274794863    9.95329344166459
H         3.23288276957021    0.68380032193022   10.57759967809898
C         1.32057223003276    1.79107447176895   10.39291012286318
H         0.98193614734727    1.85473721410155   11.41680598051703
N         2.63400475303155    4.73394615755022   10.36745390679800
N         3.62604480943511    4.18809582490759    7.89351101870140
Cr        2.55512722637238    3.34820145406786    9.14539487547167

