58
CSD_code = NAYSUD | q = 0 | S = 0 | Stoichiometry = C25H29ClCrN2 | MND = 8
C         4.86635384352198   -0.13338221548844    3.59439053198466
H         4.88617664382073   -1.21397594064322    3.73700189872951
H         5.80771999840298    0.26649331454631    3.96983203361660
H         4.78958975897132    0.07463088305946    2.53024843878747
C         3.70574299987025    0.45997143884324    4.33416627964066
C         3.58555672722457    0.46864389574272    5.70691106589383
C         4.60370520374898   -0.10014776944298    6.64775700474725
H         5.54761517862250    0.43942829488125    6.56854278938351
H         4.79559300411446   -1.14382686549477    6.40235010700888
H         4.25107668249428   -0.03767916341986    7.67389468850764
C         2.73192891553587    1.38902314440077    2.37236499597140
C         3.45652896360236    2.52753300002971    1.98184168376872
C         3.45620814569792    2.91011426236246    0.64993768627461
H         4.00354404277614    3.79394710820098    0.35473121633647
C         2.77194859327111    2.17281360239823   -0.29960384395518
H         2.77552875824880    2.48386095797023   -1.33357318531541
C         2.10422441442811    1.02483690225238    0.08022998087673
H         1.59549129493260    0.42720016105333   -0.66228828508761
C         2.08321105775438    0.61091718942700    1.40558826926187
C         1.39526372474025   -0.66459751915682    1.77565432542337
H         0.36511639393540   -0.46914413695186    2.07334942563369
H         1.89184726763641   -1.14555866666659    2.61567212029141
H         1.38005249744440   -1.34689631503042    0.92872565253100
C         4.23061440489105    3.31742106398993    2.99351337778813
H         4.49525041271939    4.29453885020098    2.59734470502135
H         5.14908482819566    2.79456525736058    3.25811823449672
H         3.64695271648456    3.44543642002887    3.90266832407158
C         2.29895546448367    1.44565422018723    7.45211597645526
C         3.00507856855277    2.55236396907761    7.94903586497188
C         2.77021363944125    2.98089950211915    9.24767555306783
H         3.30650437823434    3.84232018576892    9.61935182912117
C         1.87222801849945    2.32005480697041   10.06396625213529
H         1.69618179550677    2.66688122496341   11.07124207817396
C         1.21871236069460    1.19843800279307    9.58864021918596
H         0.53960193778561    0.65787907524963   10.23199436062033
C         1.42649382287122    0.74247926146366    8.29495801337064
C         0.73794719224723   -0.49813028887095    7.82236668514909
H         0.48285585051124   -1.13588308780247    8.66552422032495
H         1.36760034732325   -1.05293734286740    7.12993437502248
H        -0.18263522357962   -0.24553252690221    7.29609437961191
C         4.02067479040239    3.27972423282672    7.11738741547868
H         3.87208148286218    4.35584830575167    7.19167429886117
H         3.96527579174806    2.97967848091055    6.07466452548020
H         5.02344048486648    3.05832893303538    7.48387420500018
C        -0.83338730439429    2.66945726229559    5.18647984630862
H        -1.74161723533641    2.24401234667182    5.58794163958606
C         0.20541981350220    3.24997512947438    5.93219557210302
H         0.21165840617753    3.40247335549051    7.00061156131041
C         1.15409651883521    3.76642670254515    5.01645426588171
H         1.95279858631369    4.44705245854502    5.27176074694894
C         0.68256324829270    3.50596595976550    3.70852737431084
H         1.12113499031536    3.87021070883623    2.79216172609652
C        -0.54015546077513    2.82740936135575    3.81683632306429
H        -1.17846687012381    2.53476428883131    2.99684083178418
N         2.65743770281747    1.06376405970976    3.73699342206140
N         2.44825416990828    1.07652632546233    6.10607399125659
Cl        0.07279824388360   -0.27243032507820    4.67162379085514
Cr        1.17002801504481    1.55615825696717    4.80112913471314

