32
CSD_code = NAYVAK | q = 0 | S = 0 | Stoichiometry = C13H10F7IW | MND = 12
W        -1.73195076608622    3.15215227427428    5.40887879440102
I        -0.25857354922116    0.80163004308982    4.96130149262921
F        -3.66241492386892    6.33875932982007    2.14119777911740
F        -2.76509047566553    8.19447206918792    2.74115154565724
F        -1.55821385416854    6.65704536141840    1.84027476342146
F        -3.30034429662892    6.65699596017216    4.90777566205455
F         0.09461735870990    6.36142713538841    4.02641817851673
F        -0.88695940946741    6.35930496146404    5.94679015590493
F        -0.93372826544556    8.11717310041058    4.71282739942918
C        -3.44981170751025    3.93177908027813    4.28696655043697
C        -3.26378337636364    2.64571309165599    3.66652221675557
C        -2.05911491464738    2.68344176679311    2.95120101618219
C        -1.41588585598941    3.92376696238328    3.17015891039055
C        -2.28792582349868    4.74575386864152    3.98277506107234
C        -2.79175397428596    4.28382922746719    7.25142302685146
C        -1.54091787189288    3.89195508844179    7.74137243297396
C        -1.43291468893619    2.47747847760427    7.61358980897241
C        -2.68042365707654    1.97781200079201    7.09513649009867
C        -3.50401526603044    3.10603781331664    6.85827088918649
C        -2.28752608058891    6.24279985617716    4.06529953054218
C        -2.56932682550237    6.88153703655038    2.68097076384478
C        -0.97967308507847    6.78849045313276    4.68188810427021
H        -0.24201003312865    3.82241819505673    5.46882855377948
H        -4.40880527190179    4.35176860550105    4.57469097598017
H        -4.01425226144650    1.87128608527582    3.58905666080764
H        -1.66909942250743    1.89771596843395    2.31592556754279
H        -0.53539018302533    4.26899220084219    2.63822630737169
H        -3.20020903091474    5.28429386284650    7.28503861763600
H        -0.79737669325159    4.54126681875434    8.18310725898296
H        -0.65701782670174    1.87110904195538    8.07453600847697
H        -2.99494953064095    0.94172323096843    7.11812086989010
H        -4.56825843723855    3.06447103190550    6.65737860682199

