137
CSD_code = NAYXAN | q = 0 | S = 0 | Stoichiometry = C54H72Cl2N6P2Pt | MND = 4
Pt        6.05430873764298    8.80943425884882    5.78713086316188
Cl        8.34577454841435    8.98311420982771    6.17298004051226
P         6.32666071629657    9.25899969389060    3.56534958961111
N         2.79615596790230    3.84147009293634    1.70181879854223
N         3.55670787031997   14.41343442578706    0.19815676793367
N        12.97850018181092    9.78316180617770    2.70194161996944
C         5.46631888964139    7.96677481330874    2.62895351446670
C         4.76893081496420    8.17717891126622    1.44918712283953
H         4.71360259120021    9.16701937079033    1.01923132063129
C         4.12024361565897    7.11806440004135    0.83776935817476
H         3.56523320874169    7.28896869225734   -0.07437024815907
C         4.16367674275134    5.84407613726872    1.38640949914308
C         4.86867486254082    5.63730183267424    2.56896154570956
H         4.88181013025354    4.64794154306761    2.99986166818892
C         5.50547356609510    6.69048796369881    3.18911623723679
H         6.03288950398658    6.54648715869322    4.13017998806622
C         3.46126407370476    4.68953586886892    0.72645818443685
H         2.75646825309400    5.06885131294983   -0.03716271943159
H         4.20909187203287    4.07564540790269    0.21062519978702
C         1.71527665061695    4.54455778714218    2.36255545670761
H         0.91175350889316    4.83166980498525    1.66515144656246
H         2.10438269042677    5.44461718304948    2.83473227079748
H         1.29321262809715    3.90183327563509    3.13354502033346
C         2.33027401982177    2.61057906974947    1.10227469090397
H         1.87797015697145    1.99006460911909    1.87458265203957
H         3.17683837383630    2.07236033948127    0.67685094538264
H         1.58476525854750    2.77638312636783    0.30724564340227
C         5.68120740029608   10.83876432493439    2.95584967308979
C         6.02741566661401   11.33005933597533    1.69831232121835
H         6.71614793530439   10.77434109091321    1.07566545882126
C         5.50138538319447   12.52760271513054    1.25885301427274
H         5.75066672153403   12.91173745755600    0.28130928260851
C         4.62697548042435   13.25595187080044    2.06088303910273
C         4.29596245088662   12.76829387822577    3.31742570476536
H         3.62143821873584   13.32798974946846    3.94990432520199
C         4.82126550454056   11.56988226466758    3.76558793451038
H         4.55654639963369   11.18204349493927    4.74169989311645
C         4.06770861495425   14.55618702536139    1.55299064391311
H         3.29183339956813   14.92788070905496    2.24720935190140
H         4.87420066593183   15.29728578930351    1.52552658666651
C         3.25690536399263   15.69816297574805   -0.39516545516620
H         2.91723711919102   15.54445943356547   -1.41849235721267
H         4.16121630939104   16.30524271408121   -0.41764430846753
H         2.47615651113233   16.25086800891302    0.15217832473882
C         2.40277320559900   13.53895435867471    0.16328697576502
H         1.54678720403707   13.94668405664347    0.72488510684461
H         2.67001672432914   12.57449406147182    0.59170877310096
H         2.10000251879659   13.39053888100702   -0.87224781856179
C         8.01231933780477    9.23712624848302    2.89613119715536
C         8.83667217211219   10.32193023923765    3.18895382886481
H         8.43453082424137   11.15572180811921    3.74909330395302
C        10.15202858348000   10.32419093455369    2.77841749718279
H        10.80145486959634   11.15419032462244    3.01027337013092
C        10.67671122438650    9.23667310854600    2.08587727402716
C         9.85394103339455    8.15621384215943    1.80214188104470
H        10.25266523662267    7.30371703952608    1.26947271774433
C         8.52973545224028    8.15111271033368    2.20362755907413
H         7.90041498158655    7.29948857088223    1.98426139312797
C        12.11852861288995    9.24939987557889    1.65876468941720
H        12.42616815984967    8.23136597454430    1.35352080422985
H        12.21785536607056    9.90174269456073    0.78309156253237
C        14.32078191892871   10.01245762120037    2.21558199597635
H        14.91611333450088   10.45219772312292    3.01456176477522
H        14.28855711020669   10.71301391559081    1.38157704737032
H        14.81854816487401    9.08827598935645    1.87811858006361
C        12.98281290684404    8.92834811461201    3.87158643602052
H        13.40158610950202    7.93063758586924    3.66174273776415
H        11.96447195832644    8.80990323201518    4.23675757323045
H        13.57893650738863    9.39847223980793    4.65216135330431
Cl        3.76264224074528    8.63692193427772    5.40141231846438
P         5.78195618158410    8.36102382472594    8.00915392358360
N         9.31247296474189   13.77845306188668    9.87271493441037
N         8.55201639718270    3.20664299726583   11.37650775782129
N        -0.86978355159017    7.83680726274490    8.87272461548969
C         6.64227933509249    9.65323889117385    8.94556077257259
C         7.33964862594228    9.44280238857821   10.12532771496891
H         7.39497326366537    8.45294638503137   10.55524488023697
C         7.98836254752794   10.50190325174622   10.73673797094832
H         8.54332312660871   10.33101043520739   11.64890770652942
C         7.94493387314169   11.77588828536182   10.18809902388919
C         7.23993898237904   11.98269688782845    9.00555211988008
H         7.22681857638384   12.97205969790883    8.57465978509524
C         6.60312395213752   10.92952555697802    8.38540438728421
H         6.07574281405787   11.07350723755079    7.44431683707911
C         8.64729063937822   12.93044132553044   10.84806870555992
H         9.35201643867524   12.55115024839960   11.61176189776024
H         7.89941897586447   13.54436579387528   11.36380724944345
C        10.39335000677750   13.07532438878509    9.21201479951607
H        11.19688130126194   12.78825356441511    9.90942592580351
H        10.00424627676921   12.17523734567822    8.73988761470443
H        10.81540706537379   13.71800601627805    8.44098462978900
C         9.77836872011679   15.00932951571226   10.47226846294889
H        10.23065444162943   15.62985900648711    9.69996423714308
H         8.93180953283419   15.54753343260273   10.89772178611496
H        10.52389256487149   14.84350741844467   11.26728030013234
C         6.42733852327076    6.78125648004573    8.61873610549204
C         6.08090629137820    6.28989113194336    9.87618492740110
H         5.39203356224508    6.84556127197613   10.49871606860282
C         6.60694993794525    5.09237945832639   10.31571747270659
H         6.35747071208120    4.70819018573063   11.29318959597553
C         7.48158563678271    4.36413087240818    9.51384249716523
C         7.81284781891438    4.85188335365604    8.25740034261153
H         8.48755959166616    4.29227159307200    7.62505011786310
C         7.28753029968167    6.05026342331770    7.80915664477457
H         7.55241483464830    6.43818713316164    6.83312563138242
C         8.04077132146111    3.06387110174062   10.02176293179369
H         8.81649066646521    2.69202515947550    9.32745191465155
H         7.23418876927992    2.32287524141104   10.04942722209251
C         8.85188232564964    1.92189833053060   11.96976897145720
H         9.19180286926288    2.07558471517743   12.99301350218728
H         7.94754562860646    1.31486487693432   11.99246340472644
H         9.63247277741248    1.36915140297862   11.42223999347268
C         9.70601500878320    4.08104964894810   11.41115458374579
H        10.56184560954604    3.67328902435773   10.84934122620372
H         9.43873797118547    5.04555023660184   10.98284508313340
H        10.00903511659741    4.22938880725715   12.44662786470411
C         4.09630467562074    8.38300405310479    8.67837633251055
C         3.27186788901683    7.29830051006800    8.38541912898236
H         3.67393760057658    6.46457550058322    7.82512075917962
C         1.95653658766375    7.29603684833400    8.79603353719998
H         1.30702194438653    6.46613895604714    8.56405169769919
C         1.43194883541865    8.38346027559749    9.48879668022113
C         2.25481282403768    9.46380303037172    9.77271621809126
H         1.85617069732176   10.31622738405222   10.30557070708970
C         3.57899430215849    9.46890175180160    9.37114562083339
H         4.20837899239216   10.32043613829523    9.59070068036359
C        -0.00988706815034    8.37076170597856    9.91586543709550
H        -0.31757920491756    9.38882727377911   10.22094828380070
H        -0.10923145910383    7.71855272629522   10.79163432753129
C        -2.21206757984438    7.60742237181161    9.35903398971464
H        -2.80727268423666    7.16742228105983    8.56010028535208
H        -2.17981051182300    6.90705245114966   10.19319276409307
H        -2.70999305997107    8.53160716485146    9.69625298756129
C        -0.87414632266598    8.69148253063517    7.70297916142251
H        -1.29313566095174    9.68913482685379    7.91266828550055
H         0.14420215645413    8.81008690083173    7.33788405932738
H        -1.47010561654899    8.22114863005676    6.92240508298203

