79
CSD_code = NAYYOC | q = 0 | S = 0 | Stoichiometry = C15H45B11NiO7 | MND = 7
Ni       17.03627751819300    7.69827778941225   16.86270125485842
O        15.08820621819881    8.93024939186934   15.56619251191183
O        18.05124158589242    8.64375293232042   14.44440430854837
O        19.38103210022053    6.65871006685276   16.31004289202043
O        17.37695353721754    5.31472719524163   18.37052462229105
O        14.83633313371617    6.96353501834673   17.96989699656100
O        17.82563196134223    7.88602458925226   19.04625836697913
H        17.81389397046076    6.90582574822981   19.02180470417488
H        17.00656249111760    8.15043163606824   19.47296075276811
O        17.79816316675164    9.87836177071242   16.88471051961454
H        18.61325507396559    9.72602977058120   17.37011141126084
H        17.99315914564908    9.71673481242897   15.94117389569707
C        15.21536955765803   10.01580652683574   14.67139260308383
H        16.15595337538254    9.92641645349400   14.11343072862168
C        14.04839102923412    9.98912979732367   13.68079232203872
H        14.05016567332433    9.05115872401334   13.13220412839898
H        14.13301291091178   10.81362502714653   12.97771575227016
H        13.10529099592546   10.07631587032050   14.21569578608109
C        15.22352740882722   11.31123600854110   15.48092262602937
H        14.27718078494762   11.42728605539445   16.00350187360201
H        15.37268529665092   12.16468060979528   14.82504647516204
H        16.02360088625801   11.27673392235194   16.21454209129606
C        19.35582686516573    8.60854063036567   13.89601085730168
H        19.69377770603508    7.56840961785211   13.82901228682332
C        19.29868978258066    9.20965761027920   12.49044402740317
H        18.59107747141543    8.65152278681931   11.88271952566168
H        20.27781109114640    9.16949120640318   12.02103478108942
H        18.97163393783234   10.24609132670657   12.54067104381175
C        20.32514121171294    9.37669749883052   14.79556220110879
H        20.00680509076613   10.41150017287670   14.90851268189984
H        21.32059707200331    9.36608612376899   14.35916763297083
H        20.36487814489646    8.89414509164535   15.76845038555756
C        20.20763383977829    5.88486658642720   17.15266538204123
H        19.59235329019009    5.19588617761483   17.74396617837501
C        20.95416315215834    6.82571304401243   18.09890012099268
H        21.62231052442869    7.47307292372115   17.53481240570804
H        21.54138391038637    6.25437037299241   18.81264971680929
H        20.23890819017807    7.44235940318007   18.63720841063002
C        21.17789100718366    5.06913769894384   16.29453632919560
H        20.61871697537067    4.42270508413307   15.62305739838427
H        21.81931588132220    4.45880813599383   16.92495708302925
H        21.79772559818043    5.73557593144889   15.69856139290876
C        16.64546385401905    4.54361690562612   19.30420661048588
H        15.77180925397046    4.10646543718558   18.80719047691917
C        16.15884924756678    5.41806910042067   20.46166868990712
H        17.00205495006109    5.85456428880647   20.99419260700645
H        15.58180839327930    4.81710139468379   21.15971005614757
H        15.52220656396293    6.20532878272219   20.06760697946023
C        17.55474086924898    3.41838343055584   19.80225998802121
H        17.88703847876484    2.81438682624273   18.96186962164647
H        17.02115872011505    2.78387644738738   20.50455477170332
H        18.42909124927579    3.83725330402775   20.29610022338326
C        13.79969980424183    7.92270749047863   18.06107369359747
H        13.42833427532865    8.15653042885786   17.05771059140340
C        14.36082478630199    9.19880851948402   18.69043648187806
H        14.63242062766690    9.02349940196457   19.73037025976213
H        13.62359641924802    9.99556551947342   18.65383325176750
H        15.24404659520203    9.50632752589383   18.13065250929279
C        12.66174332789959    7.33126172454446   18.89409468387780
H        12.29925829925023    6.41771762260568   18.42961125888884
H        11.84217904115721    8.04123450264082   18.96568725921959
H        13.01017817912166    7.09382677921260   19.89715614941811
B        15.64964694940288    7.67009617193771   15.37249505744760
B        17.33481216711283    7.46705499162554   14.80850558289254
B        18.09321335331292    6.25885142571305   15.88852371075933
B        16.92590814280066    5.59346400925668   17.04410638932689
B        15.40702733744465    6.51313974095867   16.77001150518696
B        16.00030622358326    6.71637682789800   13.95142440731964
H        15.67764298418516    7.08556264418310   12.87977610635848
B        17.54444558892891    5.83636675127199   14.24442764407882
H        18.30617210750759    5.60689055362546   13.37401730407391
B        17.31532279606116    4.70237974804735   15.58922475541041
H        17.90155702759837    3.68212495054168   15.66147406732064
B        15.60729181898366    4.87232182162953   16.17057901314813
H        14.99466526245416    3.97021474486728   16.61933250460325
B        14.81012339200887    6.13960327729391   15.17916598068347
H        13.65265207129866    6.11952164241371   14.95795337589915
B        15.98334172174196    5.01407600846520   14.44524916631874
H        15.63463955531755    4.17934211692042   13.68812080041038

