35
CSD_code = NAZBEV | q = 1 | S = 0 | Stoichiometry = C18H14Cl2Ta(1+) | MND = 12
Ta        6.77044413163385    9.00076537263383    6.15957675772013
Cl        5.05967501255950    8.99212786189009    4.74929565894222
Cl        6.14334258976963    8.36659128568184    8.16877021216923
C         7.93854543615255    7.79294312607185    2.90409405321192
C         7.34727080597421    7.29262079237338    1.75106185393833
C         6.65983897013837    6.09236762643451    1.83128518414318
C         6.56111620179745    5.39786504191968    3.03222803841178
C         7.13349433096938    5.89321281767525    4.19704404129600
C         7.82346976361966    7.09242702381444    4.12940071652113
C         8.52619666094778    7.87115382742540    5.18260176763164
C         9.13793751344489    8.98525300974032    4.43942148202556
C         8.75259660216661    8.95817325671931    3.13403923129166
C         9.07315593589379   12.14521139731726    5.26096775298355
C         9.70569236075777   12.72899043589567    4.17535378668636
C         8.94702244069141   13.02160809868081    3.05072539252162
C         7.58700825190967   12.74506548104913    3.00933991708967
C         6.94237373010754   12.15838124146775    4.09160312897206
C         7.69087483091959   11.85933469723277    5.21704013502795
C         7.29398765298002   11.24644688674485    6.50568201232261
C         8.54716149022698   11.23553524847604    7.28919323824078
C         9.56805519957038   11.73993712200514    6.56047530826509
H         7.43225791753941    7.82090287028867    0.81434288381541
H         6.20098065138977    5.68140651122816    0.94558798263881
H         6.03839632076579    4.45444927249488    3.05659547783543
H         7.06160901697084    5.34173965674036    5.12503437414672
H         9.18060961404790    7.30694715162061    5.85041842780987
H         9.86964209008668    9.65031541917207    4.86824370206873
H         9.04857979551686    9.65467517773549    2.37010031947149
H        10.75854892675258   12.96224878864522    4.20684725942830
H         9.41897204027381   13.48312858767188    2.19727273158070
H         7.02047303180749   12.99940167049750    2.12713698726616
H         5.87905691095151   11.96097396213081    4.06111952356987
H         6.43582960176183   11.70977085304769    6.99886367627685
H         8.58981608454370   10.93626966339288    8.32520312310876
H        10.58586808543176   11.86485876406602    6.88373386158357

