77
CSD_code = NAZCUM | q = 0 | S = 0 | Stoichiometry = C36H40Zr | MND = 12
C         0.16420966717139    6.11501146258451   20.42884048429666
C         0.81803730598713    7.31494188295160   19.70686878043108
C         1.11370529040283    8.43438981371601   20.67839329329040
C         2.07296794081795    8.29395064922984   21.67681112251702
C         2.30991462441377    9.31026231840534   22.58322820505521
C         1.58764819220661   10.48966964172118   22.51428202780959
C         0.62683512675658   10.64199485015080   21.53049054627753
C         0.39522974035000    9.62330605954190   20.62318396272358
C         1.69202967996947    5.79025357545269   17.91720814721672
C         2.79914848827886    5.00513976438013   17.34270986899334
C         2.53870178980601    4.18210478489101   16.23321107354800
C         3.51579481460568    3.40147296264728   15.65326989578261
C         4.80602035329101    3.40582404853931   16.16204852811802
C         5.09403212412188    4.21591154457140   17.24637553758366
C         4.11666101238339    5.00610791437200   17.82314418285343
C        -2.36636595205466    4.64739767822041   18.98284707322044
C        -2.10473877306090    3.56381773175840   18.11279424840760
C        -1.52494202388851    4.08895139005359   16.93007035399763
C        -1.49008461374773    5.50185436228264   17.04809766661999
C        -2.00672914643916    5.84504744270137   18.31562088425375
C         1.99060688630829    3.01233826331823   19.56458870807710
C         1.20944432845378    2.35669713755771   18.57655595238232
C        -0.04074663148284    2.02674327121691   19.15255181407842
C        -0.05065541320140    2.52323884336819   20.47886112388271
C         1.21098615283887    3.11216306288343   20.73826776564974
C         1.67499937121980    3.47116125439289   22.12402945445166
C         0.48023117519875    3.56176212339079   23.07595227436630
C        -0.41176584907286    2.33100763351717   22.92380383434535
C        -1.09131615134625    2.33236005968665   21.55188202528208
C         2.08792647754973    6.80763631590318   18.99773985746987
C        -1.28892387350218    6.42612158189114   15.87592863480962
C        -0.77211525259071    5.66086399501556   14.65520463244219
C        -1.53665993186540    4.35077025853598   14.46634072378069
C        -1.27969129542247    3.37884989162358   15.62364433550792
C        -1.14485306012500    1.26917590671346   18.46927273104060
C        -2.42897996638252    2.12157096533743   18.38369346053561
Zr        0.11008877372479    4.52818614800737   18.87528040426560
H        -0.80624920684063    6.43985591940118   20.84739236201788
H         0.81047734248820    5.88460209750394   21.28946610574284
H         0.12963302043462    7.71032556568792   18.94044809811984
H         2.64566983784945    7.38026746211747   21.74958151312251
H         3.06230451636338    9.18238740142360   23.34855463580362
H         1.77304409678825   11.28356714964846   23.22287020049051
H         0.05683883529804   11.55809245988059   21.46797907093692
H        -0.35671130494826    9.75369445045394   19.85636992976684
H         1.18619880430152    6.33138798654483   17.09690370863815
H         1.53373141251388    4.17291529012440   15.82153699506371
H         3.27584499240244    2.78363826576085   14.79834144780625
H         5.57384495223062    2.79380920447115   15.71361417035857
H         6.09886279478698    4.24036097663586   17.64479947979471
H         4.39240404278046    5.63747778977304   18.65444684182178
H        -2.91549204814198    4.59158363530872   19.91688840924595
H        -2.23596918214235    6.84840425910479   18.65147599887364
H         3.04655116784037    3.23720822093395   19.48849538184513
H         1.57785572437119    1.99814340129847   17.62135362826877
H         2.24770795432441    4.40393762310598   22.13220958919751
H         2.35030822819738    2.68248271688424   22.47876743799670
H         0.83630108413595    3.64032603442426   24.10531946224316
H        -0.10784442511512    4.45638389610238   22.85143277560228
H        -1.16849136720196    2.31637870578134   23.71113640237773
H         0.19876995922642    1.43095620265710   23.02458698019298
H        -1.62111397164915    1.38714943785900   21.40016074194761
H        -1.83625270783566    3.14006572462680   21.53198150344183
H         2.72427017028820    6.32287717294041   19.74726407584095
H         2.64669259298225    7.65676723224503   18.57635556339352
H        -2.26004683875630    6.87161460116133   15.62664543069615
H        -0.61519825272025    7.25613860952882   16.11586275943081
H        -0.88557312528719    6.28213734513023   13.76403273391818
H         0.29329101034123    5.44989113612378   14.77125073057943
H        -1.24604507928438    3.88543619776185   13.52187284442409
H        -2.60574750498437    4.57087322768317   14.41922487162163
H        -1.95565741747986    2.52257889741884   15.53499109914025
H        -0.25595604383746    2.98787531257564   15.55077486260537
H        -1.36174114587678    0.33997907655071   19.00767853983390
H        -0.81506822861139    0.99655182377058   17.46237129988690
H        -3.07660790318614    1.72243560014159   17.59525107451618
H        -2.97998816772300    2.05448529892506   19.32541762804180

