45
CSD_code = NAZCOG | q = 0 | S = 0 | Stoichiometry = C19H21Cl2NSiTi | MND = 8
Ti       -0.19026945964048    5.53733458072340   15.44086621329301
Cl        1.12810794594841    3.91244035530521   14.88434024007460
Cl       -1.82282684996442    4.38120190483979   16.25548094391218
Si       -0.57952143648232    7.80932923261864   13.65455095034053
N        -0.86716362222657    6.10153011582074   13.82740596113690
C        -2.11583746749753    8.92732598275859   13.43293206438458
C         0.73587388254824    8.29211402989513   12.35460799210481
C         0.16802302140501    7.76890349786089   15.40974380763846
C         1.42845953674840    7.14792572865468   15.61463084508019
C         1.44747998829348    6.45823052591713   16.84185724141824
C         0.18587794611055    6.66895246655796   17.47552105351247
C        -0.33301868098165    6.27256748153015   18.72251558006951
C        -1.61297281831040    6.64039538306404   19.05237919496383
C        -2.40314877811140    7.40468033759311   18.17525347890407
C        -1.92709974186054    7.81982800087839   16.95637999797069
C        -0.61795855117270    7.46691210170720   16.57632412411769
C        -1.53290626828068    5.19774204875075   12.90535278646539
C        -3.05007429188080    5.38701047124672   12.98716929432669
C        -0.93393852361656    5.39955380088192   11.52917312200989
C        -1.62231606449921    5.95229540598767   10.45934744207265
C        -0.98255080153717    6.15760359196080    9.24687557830134
C         0.34888720438869    5.81796820250170    9.09113058597768
C         1.04405147498881    5.26732891803923   10.15623949816376
C         0.40698210414745    5.06100957091971   11.36480040547788
H        -1.90827148940227    9.93687133285628   13.77191593501095
H        -2.38569232094219    8.98672343748380   12.38345822233523
H        -2.97867258220940    8.55999390555503   13.97941395110699
H         1.58491565204449    7.61547668988579   12.37605963654703
H         0.31822608941050    8.25679346640536   11.35416694687667
H         1.10021410608491    9.29959186746725   12.52544045250916
H         2.27732435462111    7.23973728437129   14.94426793218720
H         2.31289159979613    5.98732671878412   17.29481767744116
H         0.27818658950591    5.70035229472522   19.40916098440410
H        -2.02764964736730    6.34553261837714   20.00486137856640
H        -3.40420455328707    7.67263676930164   18.47967302855783
H        -2.53034675599917    8.43913529490516   16.30662578762752
H        -1.30494478484460    4.16083685747130   13.22427560927303
H        -3.32011339908093    6.40162056615670   12.70664211722030
H        -3.55826532796991    4.67844083465849   12.33774185024405
H        -3.36370808825308    5.21389194879135   14.01768507784164
H        -2.66204838311714    6.22191894432435   10.55584136646817
H        -1.53063324783763    6.58559020381664    8.41993234577065
H         0.84312317442710    5.97891858310464    8.14449201181595
H         2.08312672548454    4.99626271143446   10.04083521560124
H         0.94580254039434    4.63496393405434   12.20291407085474

