77
CSD_code = NAZDIB | q = 0 | S = 0 | Stoichiometry = C32H42N2Zr | MND = 12
Zr       -0.01254884078197   10.91146931168411    3.72256234932556
C        -0.05975585865316    8.88585513622164    5.26908228687678
C         1.27714733937639    9.32303592227265    5.17571462315674
C         1.36653308420790   10.57569103818446    5.82008137495433
C         0.08288326209428   10.91608848775248    6.29454104351604
C        -0.81120971303847    9.86662980947952    5.95950188068742
C        -2.20943457865489    9.64611489085683    6.52061148580998
C        -2.77495859030174   10.96442542827546    7.08397076844243
N        -2.13121235155844    8.59520273446334    7.55758409699577
C        -1.07358188643128    8.74118379937509    8.53195385239734
C        -3.39341478570376    8.33371718792590    8.21751847797251
C         1.48044711770006   12.56352913114183    3.52539203785781
C        -3.08496495254430    9.09104542675245    5.39963122005441
C        -3.91923790498748    9.89660759357568    4.63210500057135
C        -4.69351416920909    9.35517510170613    3.61769686694297
C        -4.65202292676092    7.99816092581018    3.35162522649473
C        -3.83421957120389    7.18267424872806    4.11727632094808
C        -3.06199915141392    7.72359367164658    5.12865355866189
H        -0.41396835767031    7.90078706956475    4.99954188940545
H         2.11125129475794    8.73061033014390    4.82380799060924
H         2.27967609975153   11.11936459679712    6.02850564373627
H        -0.13523782972713   11.77134730214693    6.91978165953116
H        -2.27168626606498   11.20597416165361    8.01755258616143
H        -3.84037233569702   10.86971416805938    7.28169411489729
H        -2.61207387182271   11.78356463439100    6.38915152690264
H        -0.12046107607904    8.88026353710434    8.02955533315885
H        -1.02613024220278    7.82179821767118    9.11654072184975
H        -1.23243595465281    9.57745061551989    9.23131394839179
H        -4.19628229394643    8.29074913511077    7.48439525273658
H        -3.64789932445373    9.08553403800405    8.97992853512970
H        -3.32763894748642    7.36333267578484    8.71288722678177
H         1.37587167015263   13.14711884710336    2.59810622373898
H         2.51830891385499   12.20750924446470    3.57405893319166
H         1.36414663975922   13.28436712063526    4.35054520717835
H        -4.00512118181076   10.95184007207641    4.83788106030278
H        -5.33871506099847    9.99916997878258    3.03753837566815
H        -5.25619950004799    7.57808696236857    2.56120615779258
H        -3.80187480437272    6.11931045056145    3.92762394176401
H        -2.45137055031176    7.08346544274697    5.74582043421197
C         0.03497491142533    8.88566965213713    2.17707884235057
C        -1.30190223732617    9.32290616497197    2.27060232385132
C        -1.39136190050966   10.57528002620851    1.62568193182969
H        -2.13594470446248    8.73065140505621    2.62293137569864
C        -0.10767307548907   10.91583200019398    1.15145059312108
C         0.78642838270999    9.86643792880609    1.48659246984396
H         0.38925671841777    7.90069657940543    2.44689818940827
H         0.11057307427597   11.77133396839817    0.52662446179743
C         2.18479682326540    9.64610234347066    0.92578742669223
C         2.75032441641176   10.96441345242567    0.36244611925890
H         2.24703339038896   11.20593330810454   -0.57112482509520
H         3.81575524446328   10.86974912804498    0.16473795212967
H         2.58734629753795   11.78353162617825    1.05726148612441
N         2.10658237550517    8.59516134860588   -0.11112447337472
C         1.04890393172392    8.74119932600671   -1.08542065104356
H         0.09583981596151    8.88034181353508   -0.58292300381242
H         1.00139723959818    7.82181364057300   -1.67000448960472
H         1.20773803324166    9.57745451049008   -1.78479929079766
C         3.36877184703853    8.33369963697169   -0.77107794291820
H         4.17165009226858    8.29073181080479   -0.03796512618884
H         3.62323708011445    9.08551768535604   -1.53349576887771
H         3.30297085723907    7.36331405115299   -1.26643662127476
C         3.06028027419659    9.09104447013783    2.04680169735558
C         3.89450109348641    9.89661901667331    2.81437956977052
C         4.66875920824686    9.35519339636445    3.82880845325087
C         4.62729785800963    7.99816831828676    4.09486023300178
C         3.80952391405357    7.18267346039073    3.32917799251461
C         3.03733178635196    7.72358649814610    2.31777138056664
H         2.42667065275071    7.08346861728448    1.70063186921249
H         3.77717864799914    6.11930852110563    3.51883411135799
H         5.23152898212642    7.57808191996571    4.88523616976807
H         5.31405235111883    9.99916298617123    4.40888379726841
H         3.98044862231752   10.95182830047570    2.60853965484087
C        -1.50497514849939   12.56363071990712    3.92204315394476
H        -1.40092415786805   13.14785858330559    4.84905773299756
H        -2.54275003256613   12.20747211116015    3.87273466814453
H        -1.38840082625929   13.28375944895386    3.09632871917351
H        -2.30444438234336   11.11911377821228    1.41755058289340

