85
CSD_code = NAZJIH | q = 1 | S = 0 | Stoichiometry = C41H39O2P2Pt(1+) | MND = 5
Pt        4.00941025090068    4.09744945841506    1.69485990957221
P         2.75171814143375    2.28583203640800    1.03029467596621
P         2.91914183921265    4.58548389127857    3.67810424496513
O         7.05381703848890    4.22180264379391    1.42138503878312
O         6.37554622099589    2.02000826994172    1.52381949678373
C         5.32125226645485    5.78936575574866    1.76938207306561
C         5.91651322964788    4.79049052721075    0.95156444263121
C         5.11919916868010    4.29439757716006   -0.10816435022147
C         7.33445229248929    2.90271976765966    1.02189195417915
C         6.79651028561123    1.27898378123481    2.65864290043783
C         1.01013805434988    2.79221721967491    0.96047745840971
C        -0.06802363760012    1.99890428258476    1.32529859558776
C        -1.35470307865771    2.49254875378855    1.19087311825247
C        -1.56874378593807    3.76816186682977    0.69627972792206
C        -0.49304081842329    4.56845617290008    0.34254107362811
C         0.79173266680045    4.08143280561809    0.47863376479311
C         3.05897155690056    1.59002252541535   -0.62082422302546
C         4.24995056980459    0.88848796414495   -0.80227406391302
C         4.54998438382342    0.34387376607775   -2.03592159080952
C         3.66854459202664    0.49925750011727   -3.09563189274401
C         2.48862965497896    1.20201148138420   -2.91882314046044
C         2.18007073237417    1.75074139175359   -1.68537454523471
C         2.83176004663240    0.81293829673153    2.08087709787909
C         2.29093910875239   -0.40394661900253    1.67441618048816
C         2.36700242362117   -1.50130192266986    2.51278603145301
C         2.98905326939316   -1.39559018531540    3.74788229698630
C         3.54836446456897   -0.19176573450937    4.14508389208078
C         3.47130415226192    0.90976966842003    3.31051852233936
C         1.23325031492487    3.98229104718166    4.02844540238966
C         1.04926831704896    2.72107543243390    4.59050484542128
C        -0.22556692940061    2.24738547869671    4.83703232858233
C        -1.32939864461206    3.02435224144679    4.52662815264207
C        -1.15252898361702    4.27839302237581    3.96710137608315
C         0.12028008306869    4.75626947323439    3.71437104548378
C         2.71495696235230    6.38838566505182    3.80104354689324
C         2.32665184188661    7.05456937615186    2.64017741544688
C         2.13087052108225    8.42181862168007    2.65247423380879
C         2.33271646002684    9.13537118804170    3.82425196294075
C         2.72931189074019    8.47851227640716    4.97687379693313
C         2.91941365630465    7.10665825471941    4.97146698077486
C         3.87378798020177    4.12459998995933    5.14824032658370
C         3.31823498677556    4.08445009020745    6.42392219178232
C         4.11598017307829    3.76474797952963    7.50812590718306
C         5.46209620790007    3.48609352261736    7.32803569966230
C         6.01738839072924    3.52256475180073    6.05878901656955
C         5.22443013854726    3.84011423333832    4.97162024816274
H         4.79486958345736    6.59979693408426    1.27102875695901
H         5.89375419829945    6.11388785425830    2.63184533839210
H         5.47287960551183    3.48032279830064   -0.72651234974813
H         4.53734379582293    5.03359925944749   -0.65875180810782
H         7.34397240655950    2.81914598357364   -0.07376338252130
H         8.33544700681506    2.68860858566864    1.41085626046464
H         7.03401098762157    1.93230829916052    3.50158441847255
H         5.96676702626503    0.62725598421161    2.92178512867149
H         7.67250413162302    0.67224990192788    2.41186976507638
H         0.09497105920029    1.00592740292762    1.71721828242991
H        -2.19462583495113    1.87519621166668    1.47062395741489
H        -2.57527943637204    4.14174985892801    0.58784311767382
H        -0.66120261342028    5.56452325675946   -0.03867609830683
H         1.65272067200163    4.68444633491759    0.19894327113648
H         4.93182417268701    0.78314893648097    0.03083719444833
H         5.47054904310926   -0.20324079338526   -2.17462209654664
H         3.90311793863940    0.07296264619728   -4.05886468433334
H         1.80294686251762    1.32320817339242   -3.74369216679989
H         1.25685642630090    2.29607952920839   -1.55110635452729
H         1.82496586093993   -0.48936045468925    0.70236911398629
H         1.94437918967211   -2.44451420695842    2.20173478510672
H         3.04602879759878   -2.25618451958977    4.39649614385387
H         4.04545858530863   -0.11259095843492    5.10107032556058
H         3.91385388585073    1.85928476026460    3.59344153144295
H         1.90424142079595    2.11538150622882    4.85111734331356
H        -0.35574469376832    1.27116647216427    5.27929181993631
H        -2.32382636461393    2.65636440009158    4.72672434313400
H        -2.00890930579031    4.89126290202242    3.73074637534143
H         0.24720985983438    5.73881548040502    3.28485184084959
H         2.18188761803975    6.48247081710355    1.72982078908659
H         1.82599464392939    8.93449653078408    1.75236013460376
H         2.18553570455679   10.20425234134764    3.83593336099824
H         2.89263303895380    9.03605754587043    5.88652685158654
H         3.23405498595952    6.60173915931966    5.87302472021257
H         2.26735749727640    4.29745334366881    6.56235131428667
H         3.68695709214494    3.73510200675283    8.49817732737216
H         6.07868839348745    3.23921635060771    8.17853613649307
H         7.06691287273760    3.30691628604056    5.92336136162835
H         5.64025542880382    3.87308749160154    3.96951466380392

