58
CSD_code = NAZJON | q = 0 | S = 0 | Stoichiometry = C24H30HfN2Si | MND = 12
Hf       -1.18189522940702    3.48557059060754    2.53226520565499
Si       -1.18189742459720    0.19347775561708    2.53226420874503
N         0.25074625069054    4.78113584216670    3.03664694520501
C        -0.54604127941190    1.47905399835151    1.31075275275211
C        -1.40241796440947    2.19786658330261    0.42822519147875
C        -0.72873502225360    3.30985400770495   -0.10595161675923
C         0.58849379865509    3.30684576312439    0.41978333467952
C         1.72502746215423    4.07802550420625    0.13121989113020
C         2.91155929064395    3.78387140737872    0.75510976656633
C         3.00458329381320    2.73152966824870    1.67889417584480
C         1.91970024427555    1.94316527115183    1.97411276039750
C         0.69024779310771    2.19872054375706    1.34039011818304
C         0.14678536709954   -0.93254512264638    3.30793979394501
C         0.41018691556247    6.01326618274944    2.28466034874707
C         1.24477183756764    4.72583941278449    4.08947294698214
H        -2.36171372881611    1.82833401084419    0.08396102909613
H        -1.08315136385493    3.94353093146289   -0.90545396404166
H         1.66400534715785    4.87913815597881   -0.59288142199273
H         3.79630579661626    4.36276993451793    0.53153626076480
H         3.95655892991845    2.53293568453924    2.15042345325156
H         2.02106755075302    1.10523255131173    2.65000867116917
H        -0.32479256408870   -1.75785614632946    3.83066997409407
H         0.77370805364625   -0.41141434822859    4.02275673843270
H         0.79085015053130   -1.35243008299196    2.54266517521136
H         0.23408110670103    6.89817361653173    2.91902410090882
H        -0.29099604720544    6.03459647765292    1.44645493031682
H         1.43302491489600    6.10191130312257    1.88808360522938
H         1.09363362115760    5.53087392199348    4.82915210454515
H         2.25726197015380    4.85062549763362    3.67553996810727
H         1.21302896787616    3.76948381371527    4.61139829090790
N        -2.61454052465071    4.78113250037223    2.02788597206616
C        -2.77398084141598    6.01326420031741    2.77987064544467
H        -2.59787090862115    6.89817044779964    2.14550656292605
H        -2.07280081404445    6.03459277924937    3.61807831892232
H        -3.79682020881849    6.10191140678603    3.17644398018854
C        -3.60856286411986    4.72583718065513    0.97505609629536
H        -3.45741969584403    5.53086991456071    0.23537644405524
H        -4.62105301830161    4.85062689424924    1.38898513750548
H        -3.57682071676176    3.76948128518739    0.45313263682429
C        -1.81775152218168    1.47905441539325    3.75377620578315
C        -0.96137390979945    2.19786669048516    4.63630374478102
C        -3.05404073508584    2.19872031386403    3.72414167622022
C        -1.63505689309776    3.30985255681022    5.17048302082931
H        -0.00207799481283    1.82833325143662    4.98056699661763
C        -2.95228636894515    3.30684424430554    4.64474969169609
C        -4.08881938786987    4.07802440301622    4.93331476411699
C        -5.27535200778527    3.78387098574021    4.30942589603271
C        -5.36837676987039    2.73152969878329    3.38564151068547
C        -4.28349422424133    1.94316536525592    3.09042065377322
H        -4.38486317433759    1.10523375127635    2.41452379481856
H        -6.32035281280714    2.53293415339683    2.91411337125333
H        -6.16009831246955    4.36276955969997    4.53299950120245
H        -4.02779563540308    4.87913635847343    5.65741679411604
H        -1.28064055895313    3.94352721404938    5.96998696070064
C        -2.51058178286031   -0.93254223168847    1.75658709747295
H        -2.03900489248135   -1.75785012984949    1.23385095547412
H        -3.13750767367546   -0.41140829054301    1.04177521956846
H        -3.15464378967722   -1.35243164934098    2.52186161107678

