85
CSD_code = NAZJED | q = 1 | S = 0 | Stoichiometry = C41H39O2P2Pd(1+) | MND = 5
Pd        4.02163655074047    4.11062359630793    1.74668125885223
P         2.83453427344388    2.27037745975264    1.08415436062796
P         2.89924733077620    4.59028195463065    3.70013939478348
O         6.95993647781253    4.50446430842126    1.60060896440891
O         6.26427324281479    2.36101469315756    1.91748462960561
C         5.11185365374063    5.94061919156948    1.71864384208281
C         5.80896519334535    4.94284887948967    1.00745940567623
C         5.13927150782359    4.29119396148198   -0.04468142086200
C         7.31255424280368    3.17082044617578    1.43341500708024
C         6.70913113094121    1.05533618452677    2.22748692329657
C         1.12387954549838    2.87167834426304    0.97449543005250
C        -0.00788962976053    2.15065834486883    1.32557096097283
C        -1.25867670013069    2.72524929303081    1.17223115419509
C        -1.38383392549895    4.00969790971550    0.67078262552486
C        -0.25435298930505    4.73767590972777    0.32751487658290
C         0.99594597992793    4.17173585947678    0.48334036866758
C         3.12517645800976    1.55410853081171   -0.56528533088330
C         4.26076213561666    0.76161060321927   -0.72355328804929
C         4.56028654755480    0.21512511001558   -1.95624917312181
C         3.73245265757214    0.46103847590628   -3.04150230498907
C         2.60700852576702    1.25327370520102   -2.88911875444305
C         2.30078960443956    1.80440644548830   -1.65630105187834
C         2.83683520727242    0.80574855403849    2.14868331956605
C         2.20480884977160   -0.37869868500280    1.78013271779030
C         2.23729553005547   -1.46488260322503    2.63586416884693
C         2.90833929364543   -1.38114945639298    3.84689902279899
C         3.56187913102427   -0.21229480727241    4.20323533121060
C         3.52784765410038    0.88020072077136    3.35354210906390
C         1.23800230394091    3.94505585161420    4.08576537531493
C         1.10479934439279    2.67342912668633    4.63842351111617
C        -0.14899578578360    2.15572086910343    4.90263101117331
C        -1.28280109240984    2.89991502327148    4.62064959860286
C        -1.15639636661047    4.16568646402166    4.07387411093193
C         0.09541891154942    4.68703314836973    3.80230369663918
C         2.64543788977654    6.38852267080230    3.84847013084687
C         2.19980637668939    7.04910051164642    2.70403257150462
C         1.95962516267362    8.40916471273547    2.73356055137695
C         2.17612277629202    9.12140770266721    3.90362326286787
C         2.63146148308465    8.47071516450035    5.03780868413373
C         2.86482085959744    7.10551694558966    5.01697162524630
C         3.90508674308256    4.12799398992206    5.13630715828647
C         5.24295891385893    3.81992355782327    4.89916614022738
C         6.07414335861569    3.48737626298342    5.95352689150775
C         5.57261246327551    3.46005044161260    7.24531861146031
C         4.23989248352011    3.75978175011153    7.48322508605237
C         3.40199109664084    4.09304608009122    6.43408541612019
H         4.49728672255667    6.64007469388426    1.15264344371045
H         5.61425002118899    6.37265941458460    2.57832770458208
H         5.61198197764185    3.46740209153048   -0.56610220019839
H         4.49924521367862    4.90684654986120   -0.67965189082607
H         7.53628596057288    2.92413965093754    0.37839469642877
H         8.22359688094075    3.03159287785630    2.03402893588527
H         7.44725952854619    1.07984841878192    3.03624226770047
H         5.83689659778932    0.48938335278838    2.54659326264399
H         7.16107312836862    0.57934473341091    1.35045899767663
H         0.08570203732612    1.15237622693939    1.72629729013376
H        -2.13979460684121    2.16433829190739    1.44372749768693
H        -2.36243065885365    4.44772930423760    0.54898017584607
H        -0.35519471483490    5.74023907281505   -0.06120785795569
H         1.90072376535546    4.72323524554870    0.20555784429509
H         4.89746166603628    0.57888369061516    0.13173393536506
H         5.43803231289772   -0.40254937520933   -2.07529439922673
H         3.96657172533287    0.03559297465086   -4.00513166503723
H         1.96223780671395    1.44375278305666   -3.73365055960104
H         1.41919979907570    2.41928034214142   -1.54282156415529
H         1.70417548857903   -0.44851138559330    0.82425609005675
H         1.74278378632896   -2.38279629929160    2.35662924367755
H         2.93048896157654   -2.23344249178479    4.50847086025642
H         4.09785768832612   -0.15282748361969    5.13920969751574
H         4.04366479544271    1.80448724770882    3.60291611471361
H         1.98507811926642    2.09478414202255    4.87618905181636
H        -0.23923889802021    1.17078138294908    5.33563606906688
H        -2.26107735510720    2.49715562141749    4.83334913783908
H        -2.03620371353977    4.75380756544301    3.86156276559185
H         0.18180544578996    5.67778635400163    3.38123487688991
H         2.04537154193583    6.47798550492673    1.79148417496933
H         1.60932154641935    8.91801707961041    1.84775980611546
H         1.99513925005853   10.18490445649326    3.92777121768217
H         2.80731145403619    9.02799659452515    5.94532586945305
H         3.22589958541080    6.60539684652409    5.90372649743102
H         5.62193647058747    3.83989088461298    3.87665861196512
H         7.11206697430550    3.25117688949384    5.77244154039904
H         6.22012822956358    3.20193879991589    8.06927191755753
H         3.85280494126467    3.73436080007708    8.49059796485662
H         2.35985612220849    4.31743394653270    6.61526459632684

