41
CSD_code = NAZKOQ | q = 0 | S = 0 | Stoichiometry = C14H19N5S2Zn | MND = 5
Zn        5.52452561026527    2.82915832970343    2.78651982877755
S         2.01714839478805    5.14211300102436    3.05897949406893
S         7.75854435577382   -0.71650991808410    0.94384252794706
N         3.76150631842640    1.60573874636407    3.14307288565423
N         5.06739730751148    3.12729856600693    4.79166985750051
N         7.14639506215187    4.20831281759471    3.39165605018389
N         4.39537245708025    4.16679372092379    2.06240407895287
N         6.53489158811084    1.50968812888401    1.99929850297781
C         3.15063394508759    0.84702925991116    2.25325144573866
H         3.75791459617028    0.51825420845757    1.42150864111489
C         1.81398760484271    0.49014730206313    2.36504587799010
H         1.34809886207847   -0.12408736271120    1.61150272761524
C         1.09941437413360    0.95379141822508    3.45733002498321
H         0.05352599300866    0.71347074250333    3.57570588591558
C         1.74438312047464    1.73876978798609    4.39927283391681
H         1.20140778616690    2.11597617020410    5.24992760181789
C         3.08831203661023    2.04945318273893    4.20793947949276
C         3.86236789485483    2.90155750402887    5.12988235771813
C         5.97040948774978    3.97321461977076    5.51238365256619
H         6.08371131824825    3.64958064618451    6.55395560169293
H         5.59021696819951    5.00346538016644    5.50990453168500
C         7.32903982373829    3.93084823645895    4.81118862198552
H         7.99934359230443    4.64747161953419    5.30353058333759
H         7.75317362502755    2.92745963071972    4.90196757179639
C         8.36745886677476    4.12880963063836    2.57756017849670
H         8.72611819111430    3.09609056662015    2.63730717335070
C         7.99569557385181    4.44597680172067    1.13454712467177
H         7.18552418558709    3.79870930065663    0.80663385561538
H         8.84984897316197    4.28762368880718    0.48250858645432
H         7.67378918682694    5.48139665303638    1.04276807067201
C         9.46541381047546    5.08071855053426    3.05851544941869
H         9.08588165696115    6.09948977466071    3.12398803857491
H        10.28896006616115    5.07103296573454    2.35027632422805
H         9.85907022362651    4.78791205534587    4.02859275455959
C         3.18048380514505    3.44580648057039    6.34338300065659
H         2.69884405719164    2.64569780303544    6.90144131515516
H         2.41443825625771    4.15224848282203    6.02540323804769
H         3.87642518794964    3.96220996644520    6.99749170919943
C         3.37339783377623    4.58926081555184    2.46890478446916
C         7.04927378036095    0.54821250834784    1.54755466317143
H         6.78185422197186    5.15630821681147    3.29368306783091

