68
CSD_code = NAZMIN | q = 0 | S = 0 | Stoichiometry = C22H38BrCuN2O2P2 | MND = 3
Br        1.54973516826180    2.74359946290994   17.79548234939424
Cu        3.29564663340353    4.31140235731762   18.02761692321982
P         2.56335219480646    6.15561443975536   19.04225165223789
P         5.05118018317494    3.73417293793036   16.76577867757093
O         1.44779958209222    7.82615626085790   16.30322771165839
O         4.40372349598076    3.39691589022219   13.21852925036212
N         1.02183863075388    5.61683574180234   16.02153053735988
N         2.69221698338494    3.78730335239722   14.67827337167383
C         1.09055220350771    5.60351468144456   14.60656359643243
C         0.35027069464843    6.52360622986795   13.87948345088022
C         0.40480797492663    6.53726792215434   12.49785985807937
C         1.19482982349958    5.61689740748649   11.83328792187116
C         1.93705976564126    4.69257473897950   12.54514928839416
C         1.90407956252758    4.67937606187752   13.93461111018089
C         1.14383092756481    6.74390086781851   16.76155792309997
C         0.93160266675448    6.53731707790584   18.25093915798135
C         3.47703324625518    7.76669757252650   18.80253366079689
C         4.98185586482334    7.52254009586004   18.90693780595565
C         3.02885314450596    8.91507865057533   19.69777916021955
C         2.07673489790350    6.07703767770598   20.84199000168268
C         3.32417011504034    5.77663192802216   21.66983262223647
C         1.03620644357567    4.97688348645538   21.04493800036946
C         3.88675848742054    3.26381966423503   14.30732120259369
C         4.58021919018924    2.52623184613042   15.43979885573908
C         6.10271942749122    5.00074521662786   15.88762227640637
C         5.19296512354605    6.06859650152278   15.27724801454017
C         7.06404464147922    4.43366388456183   14.84957799271332
C         6.28560475623365    2.73868430185740   17.74393907955123
C         6.75249551808440    3.57907416607475   18.93100364073321
C         5.61180650358661    1.45785621223275   18.23275985398536
H         0.81444239598573    4.73834513023595   16.48948939637008
H         2.35230445747439    3.55003072079751   15.60608485504661
H        -0.25946092209164    7.23689352202454   14.41085910173663
H        -0.17328336659274    7.26218703707613   11.94594300905225
H         1.23739343349424    5.61414586697889   10.75491276190350
H         2.56293096883442    3.98405695833528   12.02955695525307
H         0.26393970700830    5.69341811918917   18.43514558339361
H         0.51497116406482    7.44973052310652   18.68452895050133
H         3.24374496723090    8.03252207683774   17.76201185595115
H         5.29493566109076    7.40700516179393   19.94284424087465
H         5.53178520345257    8.35841485931508   18.47938222276680
H         5.25741589430846    6.61563202385987   18.36548054369885
H         3.53145960009387    9.82831027490259   19.38454601342919
H         3.28207603025590    8.73280268047160   20.74033449901995
H         1.95725982834919    9.08329734866235   19.61678762558881
H         1.65192651211806    7.04202505568976   21.14054143536039
H         3.77391197178212    4.83910796432603   21.34300765481468
H         3.06483195646162    5.67848072228181   22.72262628713186
H         4.06743191354892    6.56510378574229   21.57633649643252
H         0.07131349229286    5.25170673948018   20.62606557009839
H         0.89684115549603    4.79039759756832   22.10827146177346
H         1.36078865997678    4.04567022226686   20.58267450607091
H         5.46402965568370    2.01110082878511   15.05597356102921
H         3.89528518849650    1.80303262738659   15.89226044172303
H         6.68508585579871    5.46956250038682   16.69450497081751
H         4.73733122012561    5.71185754727959   14.35720340443774
H         5.76612979251283    6.96226714841471   15.03866885488888
H         4.39470334063079    6.35157228455163   15.96709707000074
H         6.51910129499940    4.02563293390111   14.00224414855815
H         7.70061531153087    3.65796269230941   15.27116122176306
H         7.70657274954533    5.23192801433168   14.48198392370239
H         7.14283582709054    2.48599381684733   17.10939407030152
H         7.42334384397132    3.00113141419542   19.56393939205760
H         5.89599538462065    3.88556148296487   19.53308712501192
H         7.28187277584864    4.47306952349454   18.60689935919041
H         5.42088217588963    0.76870791810118   17.41383394400158
H         4.66284172519176    1.68703877159839   18.71850947163136
H         6.24611932235670    0.95189946939434   18.95838306669217

