106
CSD_code = NAZNEH | q = 1 | S = 0 | Stoichiometry = C54H49P2Ru(1+) | MND = 8
Ru       12.00675415189831    3.32561983765014    8.96946455868625
P        12.40433835193988    4.29610815593820    6.85918212026302
P        13.56507712172436    4.39261969813589   10.32989180191317
C        11.34931859127442    5.71620458029011    6.38029950438032
C        11.75415109815135    7.03679792934297    6.54379197348756
C        10.90945272039066    8.07385164454033    6.18767399949772
C         9.65614020295733    7.80939667397034    5.66235900070445
C         9.24740555125307    6.49656312053614    5.49233757157201
C        10.08294917031061    5.45701699897244    5.85665519852263
C        12.00424259642020    3.13630157331685    5.50651467229633
C        11.87825002687869    3.61019559366506    4.19919786914651
C        11.58688157230045    2.73579131549408    3.16988646161870
C        11.42216647406126    1.38295113637151    3.42833388117132
C        11.55441764020575    0.90607095508014    4.72111611251716
C        11.84343403735370    1.77903536226203    5.75665981207080
C        14.07343099121366    4.87108760583010    6.37725329188742
C        14.69960428066827    5.82940187434200    7.17341276740941
C        15.95366248677311    6.30844839936693    6.84745498679426
C        16.61256187151808    5.81898872340561    5.73127429245569
C        16.01519604422597    4.83898088026126    4.95742864744459
C        14.75364631140487    4.36425931609396    5.27427743479502
C        13.25376458515488    4.00493789925350   12.08294116779678
C        13.42392893318232    2.67512101905638   12.46543155767886
C        13.22688998674319    2.30328996065211   13.78102203159770
C        12.85061303328393    3.25101669512356   14.72192212005057
C        12.67568711323617    4.57088205534001   14.34303114558366
C        12.87628483950950    4.95320505721324   13.02624067347637
C        15.34967020078643    4.02616069375672   10.24034314258986
C        16.16690023428932    4.12649568015784   11.36495676988749
C        17.52441878797277    3.88253145820294   11.25908850959614
C        18.07980436653666    3.54001618894974   10.03669971579631
C        17.26925339438684    3.42699850195482    8.91865691499379
C        15.90987020643500    3.66285687133714    9.02032177786412
C        13.48728974778088    6.21563838450460   10.33639416723203
C        14.50551659271188    7.01095340419371   10.85529936841496
C        14.36177263140905    8.38687119344392   10.86850852585537
C        13.20901465812412    8.97722150474448   10.37305942589520
C        12.19721393393352    8.18944955588313    9.84838285551104
C        12.33977843829802    6.81456964566239    9.82598955409027
C         9.71908388005046    4.06206599755462    9.17288158794103
C         9.91776967428144    2.86101459297869    8.38409072629839
C        10.38364555994356    1.84875366776381    9.25248137317168
C        10.70299954692683    2.43248096209281   10.50656382712801
C        10.19612198483039    3.78760443340056   10.49668977223321
C        10.00621045080472    4.72417507180590   11.52233653395281
C         9.37135282458384    5.90789098850786   11.22484784748624
C         8.89689974394695    6.17502218399133    9.93409949212370
H        12.73491064727324    7.26424018032340    6.93166021083387
H        11.23910522985784    9.09421105396956    6.31451123602370
H         9.00241672675079    8.62035350228144    5.38046726874502
H         8.27447006227466    6.28067690237060    5.07569394788710
H         9.75467554161118    4.43579785459769    5.71616415837393
H        12.00901597287922    4.66413055675646    3.99438291713244
H        11.48861505471776    3.10985795688899    2.16218816637389
H        11.19131485625826    0.70428023992460    2.62183520877144
H        11.43029086320578   -0.14661559331884    4.92570806637252
H        11.95094080407747    1.40848674301879    6.76970877991877
H        14.21231556903384    6.17377295122901    8.07463164055999
H        16.41904035536654    7.05694630924347    7.47092123205326
H        17.59242199410651    6.19029612887996    5.47375969893985
H        16.53204935543999    4.43807255614595    4.09845951810574
H        14.30896948003730    3.59587030937167    4.66003027787603
H        13.71357259511800    1.94910227606261   11.71419848279933
H        13.36648136629149    1.27544180178652   14.08177766156739
H        12.69417324289396    2.95899033473865   15.74902683659073
H        12.38226158201012    5.30910598270373   15.07431553669258
H        12.73814741059550    5.98563607885048   12.73777050114436
H        15.74259561187089    4.38308314544107   12.32570829268456
H        18.15138968956145    3.96024952855407   12.13452926592064
H        19.13985123605898    3.35276334498994    9.95911327346696
H        17.69481701687094    3.15239395176748    7.96482088582835
H        15.26738289200117    3.55247858378375    8.15907970278179
H        15.40746507890443    6.55551563922255   11.23652564058363
H        15.15271542757019    9.00229519985599   11.26936784330694
H        13.10283203749730   10.05095443796242   10.39241148057943
H        11.30046421460048    8.64202186018857    9.45270943116276
H        11.56257483832917    6.19549667829270    9.39198073084874
H         9.46695120616345    2.68513767824510    7.41489668883982
H        10.44303255690138    0.79418041576881    9.01316663617894
H        10.93235765315085    1.88278354131705   11.41077983392772
H        10.31608576412500    4.49399233649620   12.53106298181102
H         9.20292489179091    6.63366065258335   12.00552567842091
H         8.37308779384573    7.09999004143203    9.74757915339341
H         8.62713417614700    5.45902430120969    7.93641968371583
H        14.66908663492460   -0.37014004979407    7.03008733518513
H        15.93531885649453    0.80308102959058    7.41449910280502
H        14.52155317429377    1.31037563608930    6.47706119489439
H        16.46335973766577    1.00465703679931    9.90818214084721
H        16.38698636195196   -0.69585257298328    9.43632903053798
H        15.86214128265413    0.46315124243045   12.20913349415820
H        17.18808054089365   -0.59935662677752   11.72811932012564
H        15.50426157108796   -2.37162902007587   11.14273485034931
H        15.46001675318085   -1.94962017113096   12.85437880503531
H        13.45934187697289   -0.65095433663233   12.60029462459686
H        13.17476031212792   -2.10405170567689   11.65761896702693
H        12.49341157577044   -0.21114889035440   10.24240582825795
C         9.04636498558526    5.26535687230580    8.91217625806358
C        13.30990038026702    1.99799537347832    8.69916275729462
C        14.15325766579320    1.02103100622472    8.57061052947011
C        14.86318105185835    0.66964339726854    7.28657818864328
C        14.48814448743594    0.20808698314595    9.77432638976841
C        15.94804499689947    0.05941511315797   10.09530436270858
C        16.13820566922538   -0.36323585490211   11.54997086777466
C        15.26325595582765   -1.57511402448161   11.84908566076625
C        13.78960182908800   -1.20228945616944   11.71319073902087
C        13.53253686272812   -0.35329148686828   10.50841445957230

