48
CSD_code = NAZPOV | q = 0 | S = 0 | Stoichiometry = C17H22N4NiO4 | MND = 6
Ni        9.07343066998277    3.32894467780203   10.11944314405266
O         7.90386994226052    4.77607394776539    9.67992533275124
O         7.66896011420288    2.36231772579153   10.92399966287753
O         9.92295598365736    3.27651318101751   12.55780697952662
O        10.32676729843813    2.00831795684676   10.80311862920747
N         8.56859977809236    2.02640315426809    8.15708710947346
N         7.87298259405516    3.80875693898472    6.87932558551367
H         8.17180909992728    4.36732684406282    7.66918030541927
H         7.13818977982388    4.19403335170216    6.31008108402031
N        10.54052131847981    4.35611056793415    9.42342072411148
N        10.37643269025668    5.71895167189015   11.27309279900049
H         9.93481630825844    4.92165381959660   11.75493332018117
H        10.76684769376017    6.44691577444838   11.84653243808325
C         6.00533318952229    6.18754704739523    9.60777437674002
H         5.73709454286332    6.74707613234077   10.50115913005009
H         5.09545760789563    5.97998985381490    9.04976937325416
H         6.67874705529182    6.78905065107723    9.00248600490522
C         6.68693536326432    4.89397767343927   10.00746879640801
C         5.93320575150527    3.94432377023622   10.68338789543085
H         4.89941617398621    4.15414089846204   10.90461879368089
C         6.48548020103663    2.72371060125103   11.10195997633715
C         5.57033107328442    1.75949301955270   11.82716774568164
H         6.11167504991143    0.84551351046988   12.05457900162960
H         4.70570728444638    1.52909997357605   11.20892596027583
H         5.22158062140320    2.21209902385816   12.75267938589292
C        10.41558124588832    2.26297934178908   12.03791285874177
C        11.20934668452751    1.28058450885543   12.88549839029348
H        12.25858758898171    1.56850784737872   12.85502157395462
H        11.10926322257336    0.27703337126087   12.48349020778353
H        10.86197618641756    1.31898698671232   13.91362080980005
C         7.85205556965607    2.46572792480998    7.11548256116332
C         7.17303956566786    1.58639170748159    6.25727802676736
H         6.60120461617798    1.98076621283836    5.43051935004195
C         7.25497950025088    0.23320278017482    6.49276333978531
H         6.73836929744140   -0.46507090441396    5.84962443259278
C         8.01281015488870   -0.22010946584631    7.56764787864382
H         8.10224346120024   -1.27346255181329    7.77862526935203
C         8.64741797095224    0.71376175275041    8.36339450033888
H         9.25089684455340    0.42131330728651    9.21156933849123
C        10.94588328694609    5.45769324992925   10.08391391976391
C        11.90456334404799    6.32087028970700    9.51398156459849
H        12.19934724604392    7.20526715966558   10.05791216503290
C        12.44562998867979    6.02019264200344    8.29007604809388
H        13.18307294802459    6.67037554604058    7.84304270933644
C        12.03725206407785    4.85759298691425    7.63800929991634
H        12.45016715687017    4.58005966240897    6.68263687923859
C        11.08519479399731    4.06608423564050    8.24208178423769
H        10.73347007651854    3.15600964083572    7.77577353751737

