48
CSD_code = NAZROW | q = 0 | S = 0 | Stoichiometry = C18H24ClFeN3S | MND = 5
Fe       11.35799454411696    0.95505459602749    1.09721157725024
Cl       10.46217475075805    0.44703342987214   -0.80893494900073
S        10.34936473301318    2.88693420207903    1.01159781365895
N        12.59431843282871   -0.45591777696437    0.68714684652966
N        12.62424501486897    1.74403267185612    2.70568913715993
N        10.21982921755031   -0.01865516385834    2.23056170483237
C        12.23820810153082   -1.70654507857585    0.37353607875294
C        13.08533814512683   -2.59221288726521   -0.25987434326628
C        14.36612653236200   -2.17629601610945   -0.59518696429586
C        14.74023506205082   -0.87982040155149   -0.26924268432619
C        13.83396232375124   -0.05025388974398    0.36502467308504
C        14.17331261710850    1.35503967631527    0.77585368138181
C        14.01648231858785    1.49481863876349    2.29705846693164
C        12.38219798824823    1.09492218716661    3.99600084755450
C        12.02311408281800   -0.38604820688995    3.82774556788961
C        10.58653510357948   -0.54275144083967    3.41761926174726
C         9.68384341713873   -1.16656457447483    4.26230266041155
C         8.35056353307368   -1.27397625362931    3.89856544225680
C         7.97187395723905   -0.72983756932757    2.67848216602655
C         8.92198418354899   -0.12023271370641    1.88891230933951
C        12.40161597995106    3.20003318790696    2.78929873584966
C        10.96232574071120    3.67593996572250    2.55916972074442
C         9.98648021923762    3.33900569688945    3.68452231470369
C        10.98754863820730    5.19084922143887    2.35136745610668
H        11.22830133608974   -1.98061652520098    0.63801649180541
H        12.74444090692690   -3.58773435473021   -0.49386621182917
H        15.05376185331931   -2.83785589703687   -1.09807228621315
H        15.72366764387646   -0.50975772062982   -0.51677555938495
H        15.19430820513487    1.59534054494794    0.48029196724325
H        13.49020475709211    2.05401426907497    0.27129520807119
H        14.35915977352376    0.56356992553916    2.75375138940270
H        14.66287313150730    2.30033739679747    2.66893890665683
H        13.26981506874592    1.19131453653775    4.63780372661206
H        11.55772096158790    1.59528416622029    4.49803740052313
H        12.18946687188524   -0.90592912326591    4.77149683127339
H        12.66486431122960   -0.83084672708881    3.06575500837987
H        10.02927177517452   -1.56770221648212    5.20357392241735
H         7.63650674020320   -1.75881430725009    4.54526584183518
H         6.94887752759394   -0.77452571117989    2.34174981916974
H         8.65865650408945    0.30539711883354    0.93364071040715
H        12.99800690330099    3.66120473773550    1.99743578066059
H        12.77623904967303    3.57614381643661    3.75506579276868
H        10.36937730810854    3.66511000509879    4.65257423104419
H         9.04596580481188    3.85226976146250    3.49777025897582
H         9.76985390260414    2.27317436397922    3.70901684495867
H         9.98733214322965    5.54202324979401    2.11340992303500
H        11.64045250062439    5.45576774886653    1.52274232949808
H        11.33450038225550    5.69767944043083    3.25175415137232

