45
CSD_code = NAZSOY | q = 1 | S = 0 | Stoichiometry = C18H20N5SZn(1+) | MND = 5
Zn        5.14286475584326    4.02558461823740   14.37973027349256
S         5.16068276244205    7.88488869131286   16.30949705251395
N         3.85651934729976    4.31382644786324   12.72674663018388
N         5.80234283109814    2.57337366507720   13.06092511510859
N         6.10042134650605    3.05460780870493   15.93908064637497
N         3.64244296405266    4.05429918260198   15.90827850996395
N         5.71118279647360    5.75903356612425   14.64881116965733
C         4.06183997801681    3.41846696864243   11.75479220473919
C         3.45808670861871    3.55036278614754   10.50714680943904
H         3.64812087899816    2.84089030681198    9.71873540128547
C         2.62878573202177    4.63754849924579   10.27320810130822
H         2.15302148886221    4.76114484795698    9.31262552876381
C         2.43855269081682    5.56488877213765   11.28382447654234
H         1.81500370186495    6.43177186699042   11.13826979249262
C         3.08274736407805    5.36101811451182   12.49668925939616
H         2.98891711275666    6.07171591683525   13.30563521780129
C         5.04188981050352    2.35857404288974   12.05877177603442
C         5.13826687491126    1.16454330780542   11.17037587238341
H         5.90576874303915    1.32662310357789   10.41157699434972
H         4.19619867332406    0.96231522409143   10.67041023939690
H         5.42315870441846    0.28537351243333   11.74466181540699
C         6.90649972328482    1.70689987499635   13.38066491406023
H         7.46098945281361    1.46345665143231   12.46689632030314
H         6.52876465248818    0.76657509332462   13.80244875663147
C         7.84647909599790    2.38715431016534   14.37360280805022
H         7.97360502762027    3.43043070274770   14.07695116004805
H         8.81953866339514    1.89663294225343   14.33378669663476
C         7.34134412780478    2.33895206736973   15.81133274916954
H         7.19528377197866    1.29507691480628   16.12070117027507
H         8.09812790757963    2.77694362821546   16.47302953679548
C         5.55922951136278    3.25623556949174   17.07684632011819
C         6.12140381873071    2.76725958706460   18.36832634027424
H         6.52981511447411    1.76494767101560   18.24969962194129
H         5.37411109270988    2.74767475654098   19.15451497239962
H         6.94037338222139    3.41862541417740   18.67761169247321
C         4.30012562328895    4.02061308142370   17.07592698005481
C         3.83090581033921    4.68965066564626   18.20220460500380
H         4.40244566584145    4.70227903871428   19.11555366027186
C         2.63559841652589    5.38632778169087   18.12291018074458
H         2.26568538644889    5.93486353620738   18.97486964515354
C         1.92847399157824    5.35901075604292   16.93268066049922
H         0.98069669606874    5.86258358414607   16.83422359335575
C         2.47830136422696    4.68400642264642   15.85342771128350
H         1.95843892535389    4.63936854665707   14.90680693264800
C         5.47704751193021    6.67608015320890   15.36359008517346

