45
CSD_code = NAZVOC | q = 0 | S = 0 | Stoichiometry = C18H21ClO4Ru | MND = 9
C         5.59384352845307    3.56624147217841    2.15569236012162
C         5.93622311979848    3.53725264480969    3.51795334322190
H         6.96743126105273    3.38240614071203    3.81584355915881
C         4.94392773154918    3.74579179127581    4.51016404080693
H         5.24059763600063    3.73520238283719    5.55332604454085
C         3.61326703191257    4.05895321419400    4.16326332069141
C         3.28555937935617    4.10403080414925    2.78155337717913
H         2.27797882034918    4.37973583079467    2.48731537396354
C         4.24879504460683    3.86016278696360    1.79419862942446
H         3.98933892658639    3.95384600454951    0.74640744073737
C         6.62486789574252    3.36992512398683    1.08648390510839
H         6.79906355056090    4.31035321438242    0.56156526006717
H         6.27992960173219    2.63570767876444    0.35972111429289
H         7.56474337164848    3.02423151812493    1.50971166469366
C         2.57205182104206    4.35410090682619    5.21762282509742
H         1.62607646575871    4.57048469645761    4.70752388610000
C         2.36458776594446    3.12773855769621    6.11043673389373
H         2.16365174464751    2.25019716063244    5.49553257512068
H         1.52465525770236    3.28799040550929    6.78213037638309
H         3.25067035526375    2.92394160296181    6.70627238663336
C         2.96476190567731    5.58291906359208    6.04280143347835
H         3.87682689664226    5.39852704855520    6.60512271264873
H         2.17259635891497    5.82131628456392    6.74804635139242
H         3.12401750269265    6.44524011613365    5.39786788744458
C         4.27030295882324   -0.53949242567809    1.71670120772394
C         5.05049478089589   -1.43254839954140    0.79435928485083
H         5.89944738342868   -0.87595600219265    0.40342244063936
H         4.42594140837096   -1.80363253271170   -0.01328610622847
H         5.39865689401591   -2.29975109575949    1.35097061674686
C         3.02809127918011   -0.98554752792854    2.27428749246912
C         2.15947587320640   -0.08713906116621    2.97231354597696
C         0.87688538584991   -0.60338000551975    3.38646027014816
H         0.20701989454748    0.07605479894284    3.88453175498720
C         0.56555400910826   -1.90028614592456    3.21104213306650
C         2.61970950601147   -2.36117815548310    2.08184578225779
C        -0.70253926777087   -2.54060934099949    3.66764193170361
H        -0.47705094470704   -3.29096615836519    4.42382496113935
H        -1.17788892454489   -3.05045080151674    2.83176635501886
H        -1.37881554499129   -1.80064904636854    4.08232450383538
Cl        4.72975068052785    0.47655664357320    4.84351388443120
O         4.77925479528120    0.58860334846110    1.89992460361278
O         2.37575356712080    1.13145840540291    3.22874760653579
O         3.22871520056886   -3.23402316859388    1.50973395651187
O         1.39592536668752   -2.74980000026737    2.60042295562721
Ru        4.20865272475139    2.05754022098473    3.21349421674629

