61
CSD_code = NAZZOG | q = 0 | S = 0 | Stoichiometry = C23H30N2O5Zn | MND = 5
C        -0.73745897672905   12.25788068549359   14.80497573995838
H         0.26377070570343   11.93503959968010   14.53238197574867
H        -0.74651516431197   12.56210651794085   15.84815463611832
H        -1.00682714446444   13.10644009951810   14.18215535101076
C        -1.72163131370727   11.11872473022838   14.58334074549475
H        -1.46246612852080   10.26320686333653   15.22388603424108
H        -2.74159021429586   11.44597121355679   14.83577582284731
C        -2.32753930322487    9.64000950635537   12.81412487452022
C        -2.01271983372809    9.23753114831362   11.47067137630738
C        -2.65645217070563    8.07526811659249   10.96671720954519
C        -3.59045379361555    7.38463887326794   11.77022358156587
H        -4.07532684474152    6.50866936421948   11.36237042823442
C        -3.86273907398822    7.79594364562287   13.04165962703669
H        -4.56918246303608    7.25868835188678   13.65611065082644
C        -3.22070816305242    8.92593324622022   13.57127200787063
H        -3.44918266739415    9.22114209008254   14.58421519669895
C        -2.41382626136152    7.61235627953348    9.64786891972380
H        -3.11496928614162    6.85251302417938    9.27684432708354
C        -1.50823803263518    7.58012317058221    7.48538428405344
H        -1.83754219908433    8.43098046491487    6.87529141813493
H        -2.24566445760092    6.77204157157118    7.36068993892167
C        -0.15459955292753    7.09701428761641    6.93530948078291
C         0.31145351016952    5.86229233694468    7.70779372961074
H         1.29388436517371    5.54528816620360    7.36428841662208
H        -0.38706445963303    5.04157650845144    7.55883728558363
H         0.37144996662115    6.07601753961300    8.77293423606126
C        -0.35105766983776    6.73555713056067    5.45910701705006
H         0.56666019061328    6.32736118144975    5.04259110474917
H        -0.63041721548312    7.61344817666639    4.88074474813676
H        -1.13427411944017    5.98912168267456    5.34956072307948
C         0.90646849403501    8.21776043788281    7.01262418142822
H         1.74904844173007    7.95197568907442    6.35674038611914
H         0.46170781468289    9.14932090000974    6.65187718688576
C         2.57716349429019    8.11487955268401    8.65278639501013
H         3.24847587601580    7.81427172678213    7.83768814894136
C         3.15749086336021    8.10795986011283    9.94810875290315
C         4.54975536591884    7.88943822727269   10.05740815420412
H         5.12349757133026    7.76307997575808    9.15014074798161
C         5.16540580578042    7.84891404267718   11.27312604923128
H         6.22948397706554    7.68513395952982   11.34813579959297
C         4.41830757478443    8.02467188963293   12.44818046674361
H         4.93258363500096    7.99666118199220   13.39669093063254
C         3.06318531477953    8.22627987324620   12.38822957490127
C         2.37226380623733    8.26170478083890   11.12348863816129
C         2.78967773140673    8.40138269059227   14.75427824824981
H         3.56157524837147    9.17878928373964   14.86140550776193
H         3.25335603410634    7.42349781671053   14.95122086084032
C         1.65280467641107    8.65186083282506   15.73359016859681
H         1.20644413624463    9.62284050121794   15.53827297341799
H         2.02498272517082    8.62517760401842   16.75419531146870
H         0.88795261398915    7.89062816542721   15.60738436306789
N        -1.48547737373734    8.02724903965883    8.85529564197261
N         1.36330906876050    8.42082899952690    8.35843861348900
O        -1.64679978209370   10.74850482000273   13.22621510702271
O        -1.20914024630970    9.96085632328271   10.77874512106388
O         1.09941757862621    8.41112609321020   11.12628140990580
O         2.24299450388637    8.43038262181641   13.45665424756724
O         0.99981103532943   11.08682654492745    9.84800978461563
Zn        0.04332064352066    9.02558152578016    9.71256450910847
H         0.20635866392816   11.43467224290026   10.27762362883100
H         1.60630247877554   10.90785722367176   10.57411820269301

