57
CSD_code = NDPECO | q = 1 | S = 0 | Stoichiometry = C26H24CoN2O2P2(1+) | MND = 4
Co       -1.43353986465466    3.27846535381942    3.21466058912167
P        -1.40051945649230    5.39941443290303    4.03475223628533
P         0.73982335894716    3.46367037711590    2.57602256152902
N        -1.06620079758763    2.28086394752252    4.40772105944671
N        -2.33825659294111    3.71586525498896    1.97206493410323
O        -0.50746838670214    1.64831631758762    5.21602722681122
O        -2.91545071824549    4.32213474290450    1.15662597773952
C         0.39713711119241    5.83476613628242    3.98732639716671
C         1.05400968211103    5.28007150509810    2.72476295234799
C        -2.28119295566516    6.66855405264028    3.09212808335530
C        -1.67557409409937    7.64090757740603    2.30407914466912
C        -2.46313390856708    8.54543192745696    1.61272643399725
C        -3.84431960994836    8.47739336502209    1.69210734630136
C        -4.45102004912253    7.50069096267307    2.46763007170086
C        -3.67343383653766    6.59524682631214    3.16129346755749
C        -1.88111858821393    5.75448097372416    5.74487608594404
C        -2.33106451758429    4.74219136030918    6.58312165388392
C        -2.68420012767830    5.03675371648856    7.88852140366633
C        -2.59141161156557    6.33849123926021    8.35270906604667
C        -2.15206262603556    7.35130608670935    7.51250677448253
C        -1.79952245448955    7.06703432699041    6.20727636978887
C         1.26383629363103    3.06952031193168    0.88765348517207
C         2.60887498799631    3.21046972733173    0.54972474907640
C         3.02034834313263    2.92206252175343   -0.73725021753776
C         2.10206122123701    2.48801042987904   -1.68224865042462
C         0.76776102996968    2.33698635354934   -1.34216627665318
C         0.34593653773021    2.62529369522617   -0.05596359036732
C         1.97533816466428    2.62301570830586    3.59625914388876
C         1.96030997525349    1.22972262352907    3.51042248933529
C         2.84481988684057    0.47859203093964    4.25837546412817
C         3.74284328829843    1.11265890687694    5.10369757134912
C         3.75544233589195    2.49474595351120    5.19624729488714
C         2.87116183944894    3.25572386568508    4.45118718876137
H         0.83728990261110    5.38168279503888    4.88277051050242
H         0.51609821737575    6.92025035439401    4.06319080369881
H         0.61676710210728    5.73432516350928    1.82839134239521
H         2.13176483606446    5.47135616988026    2.70937370171864
H        -0.60015245821100    7.70748573843303    2.22785898937387
H        -1.99363728518444    9.30493716029626    1.00632331965089
H        -4.44932451195925    9.18389150331721    1.14569130025289
H        -5.52680581417503    7.44359751262645    2.52548411076160
H        -4.13228446793175    5.82339820340229    3.76807034590508
H        -2.41395508197395    3.73013694724979    6.20813544902649
H        -3.03486384069549    4.25165232615945    8.54036729985925
H        -2.86908586697573    6.56784310473243    9.36969402610212
H        -2.08924089570794    8.36580595397992    7.87506284918497
H        -1.47227087059331    7.85554980536415    5.54361117630563
H         3.32325670157912    3.53333178669321    1.29454085220074
H         4.06046035398901    3.03068584132699   -1.00364714047476
H         2.43075154640810    2.25992338991262   -2.68420671694207
H         0.05650827976528    1.99069776086239   -2.07596037379241
H        -0.69217662279932    2.49594337735257    0.22263661158323
H         1.25141279456222    0.74893428859005    2.84638521650528
H         2.83187583806779   -0.59786643279193    4.18832590323437
H         4.43202137049596    0.52853495765666    5.69324347387242
H         4.45564162342551    2.98572187212489    5.85481391773593
H         2.89543528955280    4.33212780817981    4.53746454379214

