54
CSD_code = NEBBUS | q = 0 | S = 0 | Stoichiometry = C25H21Cl2FeN5 | MND = 5
Fe        8.73293501427710   10.51240436733664    2.40205526196772
Cl       10.81146284670192   10.19286322546558    1.82669606689701
Cl        8.07990163417352    8.48177101193144    2.46864038348599
N         8.98217676531597   12.48867451121277    2.43044254483264
N         7.36894475401310   15.04190998134413    1.58898106315699
C         9.77044439293744   11.80871524907115    4.59403759932969
N         9.22888569535468   10.62228788965225    4.24572632888542
C         7.27064100322488   16.36101620599910    1.43550772009706
C         9.35984702533129   12.86408981117753    1.06881817068227
H        10.40863881546509   12.58167197933104    0.93686656427628
H         9.22944919283721   13.93294728696415    0.87089778391851
N         8.22729290129522   10.80563810096983    0.55258027835085
C         7.07168246453817   16.80789014732647    0.05045454974909
C         9.99308488995519   12.76043385460167    3.44894428936170
H         9.99734261727709   13.80677537831853    3.77775970822189
H        10.96610504488973   12.50898538921026    3.01598185972847
C         7.67529586871007   15.30118129096065    3.92932641454449
H         7.82931684529373   14.85111567907549    4.89821128977758
C         6.54263358622997   16.21458065494570   -2.23159078212315
C         6.70498790943641   15.85620496558501   -0.89847948210229
H         6.55301411779907   14.83465600584955   -0.58589965532538
C         7.55963154060119   16.67676969446088    3.78869760690720
H         7.62590119265339   17.31898460421132    4.65475644828936
C         8.55823724051755   12.03210652334989    0.10709863876903
C         6.21209018821457   15.21188726734979   -3.17326979419625
C         7.56121786781021    9.99602069091925   -0.27137178575404
H         7.34541243463187    9.01333312088579    0.12265676617948
C         7.49313076413124   11.64218521390296   -1.99936582378080
H         7.19931630506348   11.97878171666457   -2.98133307017740
C         8.20620031781232   12.47957078204331   -1.15248969485302
H         8.49667242268923   13.46965087526839   -1.46781944296763
C         7.66275414972567   13.01110192906958    2.81612074286503
H         7.43169557057223   12.64352590322905    3.81998688313855
H         6.92750854461287   12.60906456360764    2.11119919628439
C         7.56092614548752   14.51657379954890    2.78621941856678
C         7.35214916694173   17.22065642103886    2.53340740575005
H         7.23925727596217   18.28608634827583    2.41646109490485
C         7.26128455537012   18.12771823212898   -0.36122675643270
H         7.56535206629039   18.88186637412589    0.34804336937843
C         7.08299376534119   18.48417870244313   -1.68740138003671
H         7.23183480108245   19.51017521994835   -1.98895165101986
C         6.72736069704531   17.53948133859062   -2.63211085119001
H         6.59669973994053   17.81263675695163   -3.66829064538629
N         5.96512239983140   14.38072025376956   -3.92308023737758
C         9.07067945970696    9.70318050656808    5.20166104150465
H         8.66093479160083    8.76052569210791    4.86940263419873
C         9.41320965749812    9.92218036827604    6.52226571066516
H         9.26853508757834    9.13922302467554    7.24881048770462
C         9.94779947787027   11.14839852499223    6.88643255286836
H        10.22834538369019   11.35503079273615    7.90730259793368
C        10.12539230432956   12.10546275823878    5.89534548449489
H        10.55193614943816   13.06999634815055    6.12595826162235
C         7.17230697545623   10.37275426293524   -1.54403039122774
H         6.63192817544050    9.67765840320919   -2.16574277534179

