68
CSD_code = NEBCUV | q = 0 | S = 0 | Stoichiometry = C36H27N2OPPd | MND = 4
Pd        9.07318005118633   15.69355809338076   10.80300550295594
P         8.60476060815612   17.02926862572987   12.53602748031689
O         7.21633463259408   15.77083862853669    9.62062159147092
N         9.48799852360590   14.59198658719165    9.24608720643253
N         8.54992357796792   14.41781448102064    8.31631573614337
C        12.85951141987363   13.96131553622132   10.34503630330273
H        13.30335202279134   13.39231333151657    9.53931541171224
C        11.55877031043555   14.39732719747510   10.25170313052700
C        10.95215300842923   15.16174531582925   11.31172922872659
C        11.69203476306009   15.40986849969577   12.43010649484129
H        11.27168323539695   15.95708149649416   13.26823595603969
C        13.80619271432171   15.25785367382985   13.69533415323049
H        13.34869598950138   15.81518338918767   14.50124371822980
C        15.10798004571236   14.84205561133875   13.78647622227987
H        15.69105671869096   15.06601866445997   14.66820923579540
C        15.69592406463637   14.12301908397058   12.73699065906124
H        16.72368091794912   13.80130220275819   12.82381605811497
C        14.97388569098600   13.83171113336403   11.61174511277387
H        15.42270273855512   13.27779073336293   10.79912246180329
C        13.63327173133650   14.24805183077791   11.48793371836700
C        13.03836615061178   14.97528793386573   12.55167354554851
C        10.68789453885013   14.12425146584619    9.13350704912993
H        10.99299749470146   13.55352415925357    8.26062446045707
C         7.41451730277599   15.05238489174896    8.59582659369477
C         6.32085424162387   14.89141271160437    7.61257565047063
C         6.45736019564413   14.04927196790786    6.51239510152739
H         7.38399004367758   13.51384662535552    6.37840224342112
C         5.41415490354334   13.91062925799943    5.61709536686650
H         5.51951245568774   13.25580180654952    4.76407533610371
C         4.23183027807953   14.60861057068694    5.80974192879133
H         3.41841764609958   14.49697511797017    5.10719205060424
C         4.09267889757904   15.44948714593357    6.90219181890014
H         3.17134144686081   15.99437385248705    7.05078293267832
C         5.13177479115088   15.59108106647844    7.80152915130395
H         5.04335697718892   16.24315956037552    8.65854549846427
C         8.24872105237348   16.09346635603710   14.05535378674644
C         8.45945314019561   14.71802351554910   13.99237935129552
H         8.83548060341833   14.28390182566584   13.05966558774385
C         8.18715694619025   13.92438209889114   15.09179820498435
H         8.35166034494575   12.85816626570775   15.04466623680731
C         7.69698817894405   14.50023854151320   16.25338807652091
H         7.48535711617438   13.88234070666985   17.11346689107813
C         7.46122228463561   15.86496891444452   16.31037472340335
H         7.06086935686973   16.30590977473745   17.21171009975219
C         7.72787807508068   16.66324484162578   15.21248481030567
H         7.51552435124217   17.72335193089581   15.24345313948188
C         7.13853880068628   18.10813496984916   12.45002589595381
C         7.14804682831892   19.46618130563045   12.74261266629367
H         8.06809579437686   19.95109322838524   13.03923351702736
C         5.97572865844010   20.19640031115950   12.64361553660829
H         5.98238491016073   21.25309550487198   12.86903834305576
C         4.79933020564443   19.57888326777187   12.25346044657945
H         3.88933943282590   20.15544136514891   12.17453989945168
C         4.78953000399273   18.22451240723081   11.95479557767995
H         3.87242067994029   17.74702035479802   11.64206457108554
C         5.95557023505721   17.49062178125034   12.05016675992883
H         5.97303871768426   16.43643673226077   11.79768865662532
C         9.95828994033227   18.19296906701017   12.88641258722433
C        10.66069773227152   18.59217408750834   11.75037724911433
H        10.35888836451767   18.18839348724205   10.77924525483521
C        11.73041710533505   19.45828940439375   11.86277141719284
H        12.27586855701173   19.76689004050392   10.98350323289863
C        12.11194976794287   19.91965515509122   13.11399825086115
H        12.95391899149652   20.58933798131465   13.20723626402961
C        11.42500291055006   19.51405410158623   14.24600450968767
H        11.73309148166281   19.86718166700929   15.21945409308860
C        10.34666992109688   18.65172057072753   14.13766236351469
H         9.82192938136932   18.32381618728773   15.02353788911741

