76
CSD_code = NEBCOM | q = 0 | S = 0 | Stoichiometry = C24H43ClN5NbSi2 | MND = 6
Nb        5.04002656419046    2.55291562404825   14.58844705146580
N         5.30628671798274    2.12221463615133   12.88878843557739
N         6.08649952624558    4.25441248883916   14.90933766116301
N         3.28209918105274    3.59076157577906   14.70270689408169
N         5.36980692163014    2.30620738441518   17.29007791043092
N         7.15976191434310    1.31137135492631   15.15406873335962
Cl        3.99888557526512    0.45657004940895   15.19841074622446
Si        6.93578639897624    5.24720966677915   13.77913960104578
Si        1.82197522779705    3.49819603191871   13.77952802044145
C         5.48406250475662    1.59749352717063   11.58771305209671
C         6.92649537322619    1.84950657658056   11.10777050756588
C         4.50293511163500    2.24048437246824   10.58820015613422
C         5.23182712440125    0.07535657864845   11.64732452340016
C         5.32114541717734    1.11466973321300   17.87195278203913
C         4.18291685120937    0.60538859198271   18.46678887638773
C         3.01854593838944    1.35472928505810   18.38808449070163
C         3.06181527894728    2.59841507119343   17.78668074021867
C         4.27298369911629    3.06118672275570   17.27032279325030
C         4.41134342211555    4.47401325156157   16.74334607469135
C         5.84379967024512    4.75517493864660   16.23690828081402
C         3.40361482883431    4.71274142378051   15.59789434511043
C         4.11933539010487    5.43834012377555   17.90511805577471
C         8.54979554009882    4.36496153397376   13.23251554517759
C         7.46496410301665    6.94018558606317   14.50470546470875
C         5.78344077441845    5.56315547802236   12.28648736949342
C         0.28648036700877    3.91011876489931   14.86182112037334
C         1.82018129493099    4.75813990280689   12.32817245279923
C         1.61164645098173    1.72133896330581   13.12568341291198
C         8.19557549950231    1.95131091459620   15.68253564991247
C         9.31162635339045    1.29650537244045   16.18041347288943
C         9.35301779293354   -0.08761344694663   16.12249575924313
C         8.27224579417594   -0.75527364636788   15.56875437210067
C         7.19596844731667   -0.01595468907448   15.10048830930091
H         7.08229663781595    1.40352352690888   10.12833043715913
H         7.62594138600764    1.40941795113658   11.81601796567434
H         7.10903663387916    2.91845316551767   11.05206370562053
H         4.59188206781371    1.76252799226005    9.61537134756097
H         4.72664680223282    3.29807737882690   10.48232780438733
H         3.48546859733712    2.13225956733857   10.95184963962162
H         5.24979985740460   -0.35802199788624   10.65037727489996
H         6.00052167218004   -0.39506510979595   12.25665783879322
H         4.26497120828185   -0.11560565721953   12.10808226314161
H         6.24791413419607    0.55100412843113   17.85944208701955
H         4.19665177748249   -0.36343273641807   18.93940577908562
H         2.09072450090130    0.97334822514325   18.78902582622324
H         2.16941600234918    3.20098137223432   17.70641286286810
H         6.55587073090891    4.31991132810091   16.96300324456442
H         5.98590624525355    5.84232032550642   16.27338542425760
H         2.42841963234109    4.95925612744331   16.03937761181323
H         3.74347624167741    5.60625783506108   15.03793930736103
H         4.13320239883253    6.46604378388964   17.54660161109040
H         4.87620006049806    5.33215513531777   18.68167587129722
H         3.14461746161726    5.24374643615608   18.34779933599761
H         8.88382570357602    4.73516488934939   12.26929142935628
H         9.36385439372833    4.52069961343648   13.93517691572871
H         8.37759011467950    3.29716788873855   13.14025251399550
H         8.05660487321160    7.48537923301349   13.77753065493611
H         8.07050163227213    6.82930896869818   15.39897549329188
H         6.61031529212542    7.56074269220093   14.75559767181308
H         6.33234586554415    5.65691809556882   11.35531568273124
H         5.18990332809338    6.46482929969224   12.40775185956051
H         5.10436866598055    4.71573052158250   12.21291462980185
H         0.27656119616691    3.34271878436650   15.78826062838462
H         0.23549772883285    4.96550079766765   15.11228759890877
H        -0.62243999465359    3.66404818726779   14.32329927323861
H         0.91214345113361    4.67448457454827   11.73985221681448
H         1.87941090383375    5.77910287620135   12.69419300681995
H         2.66464585712875    4.59600869908635   11.66600393443975
H         0.97299110360718    1.69798742675401   12.24886860698343
H         1.16988352655601    1.07215936795770   13.87533743363179
H         2.58058830973509    1.30526801018242   12.86398807176387
H         8.12908658435209    3.03143614516341   15.69363494430297
H        10.12881201493298    1.86004844351179   16.60328252383499
H        10.20581365683447   -0.63213424930758   16.50092704494746
H         8.25785936869609   -1.83186868816361   15.50180835640507
H         6.32078131920168   -0.49779409829846   14.68061960898707

