92
CSD_code = NEBDAZ | q = 0 | S = 0 | Stoichiometry = C32H51ClN5Si2Ta | MND = 6
Ta        4.96676177706675    1.74675006710985   11.62711166684338
N         6.19834619346077    0.48694463528996   12.05642444918201
N         3.83528290075832    1.89462111691488   13.31176640950371
N         5.91826831908887    3.53780031568453   11.99905666461015
N         3.33092862140716    3.54308241001939   10.76227041215691
N         3.00797161598843    0.05673255156055   10.98424990334060
Cl        5.29101536611393    1.60324638347747    9.33175069613880
Si        3.38990082568648    0.71775117172640   14.50253665729876
Si        7.11461546531354    4.23149830826329   10.96594403871240
C         7.27298650993001   -0.24499201359289   12.38535637610501
C         7.95122336109460   -0.02838211114526   13.61508520764776
C         9.08859374375733   -0.75853371367705   13.90368033599259
C         9.57020561518588   -1.72205220258478   13.03423332746641
C         8.90458485031422   -1.95604092263607   11.84499112654341
C         7.77294523693734   -1.23862889960905   11.50423626579803
C         7.44239353693105    1.02643752783820   14.56893738784125
C         7.42986307438644    0.53500860115245   16.01759478109756
C         8.29150283645578    2.29453872484725   14.43827598365520
C         7.07556290604025   -1.49007279250168   10.18808223390274
C         7.98529096624227   -1.12645832969024    9.01309185084540
C         6.60658524767264   -2.94386870704076   10.07850257000585
C         2.96472623374343    3.63811790963980    9.49013739617505
C         2.61410291957758    4.83345360178324    8.89183671442375
C         2.67689104259857    5.98646125401079    9.65911309655352
C         3.05794241851908    5.88933169366197   10.98508226724740
C         3.36862289891230    4.64053081491736   11.51984815147221
C         3.75969224795362    4.41665912188354   12.95358358520150
C         3.07929712913465    3.11680166207221   13.46657321037937
C         5.31083664363464    4.29778867095661   13.05072054709719
C         3.31594001107980    5.57095204839351   13.86036570877807
C         1.48736510732497    0.41413635005175   14.48204505639562
C         4.21540875305819   -0.96538764700329   14.19491015601222
C         3.80141290481501    1.38301304988505   16.25831401384739
C         6.35761831606189    5.06053989964046    9.40287501399255
C         8.32575342714502    2.85247858057747   10.43866973128061
C         8.07286384452592    5.61414670532890   11.88206656165956
C         1.76059297829236    0.46896979572294   10.80211081729123
C         0.71232414571783   -0.39279033560023   10.52186537637163
C         0.97789411545487   -1.75004402651877   10.42797950378716
C         2.28020651127940   -2.18266037402479   10.62086112431649
C         3.26124505592505   -1.24346501606949   10.89823361730991
H         9.61880382319449   -0.57743240301234   14.82696530850580
H        10.45877102648439   -2.28419396961784   13.28197594029121
H         9.28215348802144   -2.70795525788605   11.16708200301944
H         6.41566793033111    1.27005598821879   14.27331439747052
H         6.94142469979636    1.26687033397539   16.65663542129663
H         8.43916951433537    0.38589539873647   16.39356201094538
H         6.88873457326353   -0.40431729664075   16.09310342781782
H         7.95912574279461    3.04935387074371   15.14905583531180
H         9.33947118971919    2.07428925916415   14.63320372131455
H         8.19717048386262    2.69586269784078   13.43244911267288
H         6.20241843348963   -0.83069856643809   10.14558705365516
H         7.45475625837861   -1.26293479650810    8.07318985537368
H         8.87866109220848   -1.74699477589952    9.00308871924640
H         8.28581892964835   -0.08506995196312    9.08929562021607
H         5.98822968244179   -3.07485194623924    9.19228970339106
H         7.45619183431693   -3.61852498121182   10.00303915252244
H         6.02814138216676   -3.22746456446228   10.95601114768840
H         2.96707505175401    2.71145667518975    8.93182392871185
H         2.31533110464292    4.86100161462829    7.85637171800955
H         2.43185955926867    6.94787102508798    9.23160925719799
H         3.11106374640855    6.77770359107180   11.59160234546791
H         2.86265860699337    3.27501025817476   14.52830823150953
H         2.09901393253813    3.02569428409254   12.96594150615011
H         5.52463472600494    3.81346054030145   14.01584742525003
H         5.72268262555725    5.31040489593298   13.08090708240074
H         3.59224721032771    5.34964584887372   14.88891374874571
H         2.23622018699140    5.70485606943619   13.81454223409851
H         3.80020497956599    6.50526648917666   13.58623641739463
H         1.20416469833891   -0.29829394131951   15.24997552233258
H         0.93403995117668    1.32931756492669   14.66982757457586
H         1.15115975882434    0.01695542223102   13.52797434364233
H         4.51811199117948   -1.41838213655657   15.13153196378689
H         5.09383202302017   -0.86092512628348   13.57194404831368
H         3.53241281016578   -1.65315880375559   13.70810133874453
H         4.02922225632931    0.57054374592934   16.93977687161822
H         4.65992568302297    2.04663679306243   16.24087077603064
H         2.96595938633033    1.93233793726690   16.68291158647496
H         7.13909536339750    5.46666208991536    8.76804949814490
H         5.68324200762758    5.87612240210712    9.65380303604706
H         5.80168822256806    4.33760100289683    8.81263389195630
H         9.36000445818006    3.13062871293644   10.61335710703579
H         8.12597784197265    1.93014248011336   10.97763548306650
H         8.21751415178302    2.64301544138569    9.37965332349942
H         8.94628766721051    5.90011520159618   11.30728415244295
H         8.41121780323636    5.29568744678716   12.86176556424704
H         7.46817216519494    6.50620686868895   12.01011525129503
H         1.59320138757668    1.53473100236552   10.88494428140326
H        -0.28633697015463   -0.00926398666598   10.38116489767467
H         0.18706467551195   -2.45235173504397   10.20960920953012
H         2.53414734728932   -3.22886991319548   10.55758332648458
H         4.29002783106813   -1.53023468085967   11.05826463173152

