116
CSD_code = NEBDUU | q = 1 | S = 0 | Stoichiometry = C60H53P2Ru(1+) | MND = 9
Ru        4.07548797226866    1.80381619073012    2.15604752706877
P         2.37927106134415    3.06477765552862    1.14327903389092
P         4.81482369357565    3.42018643782866    3.69318428603664
C         2.45283121527056    0.45673253438846    2.88950310522344
H         1.48233520494011    0.75098027073881    2.48546735535068
C         3.02419023210086    1.26767786368075    3.88556875212831
C         3.09313588860148    1.03590775786864    5.17891593186645
H         3.68088315516350    1.60497753895407    5.88153793023953
C         2.32435659197447   -0.14454983406948    5.75735363291352
C         1.69236638288391   -0.99327635223513    4.63356650827973
H         1.56577846707026   -2.01689476125396    4.98467335585533
H         0.69336391990585   -0.59639382627596    4.43277657289403
C         2.47049715384365   -1.00259737246639    3.29110691844915
H         3.49025562790873   -1.34819707625872    3.47593154204224
C         1.78175644951415   -1.92758881090413    2.29485053570882
H         2.29912315302728   -1.93573322270813    1.33840549893773
H         0.75406960509866   -1.60991529501068    2.12839762945877
H         1.76328736739665   -2.94701726405597    2.67330194771716
C         3.39277702368765   -0.86898589754676    6.57017448901000
C         3.98151767587553   -2.06445906737869    6.18297108723960
H         3.65916714914501   -2.57987893012077    5.29195925258775
C         4.98910859626838   -2.63547715175208    6.94418695425855
H         5.42909054923043   -3.56997904014777    6.62794673237277
C         5.42950927149470   -2.01938837178325    8.10086542578253
H         6.21517483045217   -2.46656663636962    8.69064878357165
C         4.84671351796630   -0.82774300826141    8.49951587389056
H         5.17490131139627   -0.34019022675843    9.40526965097214
C         3.84157935319615   -0.26050088698860    7.74068134320220
H         3.38556220369804    0.66403230474429    8.06582020482132
C         1.20992356717673    0.30802729517951    6.68559544815408
C         0.59354247368782   -0.62256921173934    7.51444941148677
H         0.93412301195827   -1.64776016203687    7.51128699041419
C        -0.44073026619750   -0.24339935467350    8.34981893657159
H        -0.90928354995637   -0.97581615466050    8.98952082934486
C        -0.87317846903717    1.07244093133819    8.36925122100429
H        -1.67922886894891    1.36879150561193    9.02302016940723
C        -0.26236844281976    2.00459654644010    7.54966798678198
H        -0.58686362105626    3.03520661671025    7.56189580400685
C         0.77219422029784    1.62450231312821    6.71174033722668
H         1.24802644549006    2.36294143874998    6.08213422624926
C         5.42839932379524   -0.01987332320036    1.91777593733060
H         5.54580679395988   -0.88351099873311    2.55656850790773
C         4.56172746202567    0.07252526039887    0.78852367241438
H         3.93862206496339   -0.72066885484430    0.40310039814687
C         4.88658383305842    1.25818223089835    0.08943103752567
H         4.50828189982122    1.53509039309610   -0.88476958057857
C         5.89315969898098    1.93612291299657    0.80946564364763
H         6.46590545480397    2.78060612183294    0.45118819300552
C         6.24526099989061    1.12233040446224    1.93082050447826
H         7.09512366591259    1.27999913255775    2.58053333243325
C         0.66379847460879    3.19162034431557    1.76804385765767
C         0.35392938051262    2.93284526955803    3.09934902156488
H         1.14253555902542    2.65345426218043    3.78502385451617
C        -0.95219173828418    3.03329278909472    3.54485214052381
H        -1.17895622772399    2.82062544922716    4.57887712172883
C        -1.95825510869269    3.39895339348376    2.66596394902589
H        -2.97748153294699    3.47699413123444    3.01188237970121
C        -1.65553397481473    3.66277880001234    1.33889691505258
H        -2.43731441565806    3.94971935819288    0.65209538293389
C        -0.35335945273615    3.55616468335237    0.88660784133256
H        -0.12279728859916    3.75829962317231   -0.15027991823907
C         2.01083308196195    2.36135415513386   -0.50958869178073
C         1.49912510411160    1.06535569608833   -0.55696269156644
H         1.33598563025055    0.51940216653570    0.36110706970998
C         1.19539326959799    0.47444413760164   -1.76823013259377
H         0.79769923089769   -0.52918037101330   -1.79172244782337
C         1.39862467766196    1.16916307337128   -2.95031650923111
H         1.16459014463220    0.70786780539233   -3.89719507433504
C         1.89878548238701    2.45910240894025   -2.91052168334391
H         2.05238855323125    3.00902430785767   -3.82677929154609
C         2.20354115300345    3.05696188259680   -1.69878832169822
H         2.58881876875971    4.06606841265643   -1.68758906921720
C         2.80598543876920    4.78748436825048    0.71529569346732
C         1.96092800624648    5.86817172318717    0.94494363459211
H         1.00199762108151    5.72036530604597    1.42110907449953
C         2.34437308691880    7.13973916041517    0.55451427312335
H         1.68260797312247    7.97341311589022    0.73454767257332
C         3.56176287075779    7.34397583685135   -0.07259597210194
H         3.84928101148833    8.33569827351317   -0.38584784185178
C         4.40991397664788    6.27201507502502   -0.30047606472048
H         5.35973538943261    6.42527384843596   -0.79020332794210
C         4.03734480688089    5.00384809590328    0.10017536502741
H         4.69471342551619    4.16362165160141   -0.07585920659675
C         5.65910879934263    4.88209718115170    2.98786275520912
C         6.93035261779835    4.69953620699741    2.44369912964896
H         7.39481936201498    3.72359132902006    2.48439628789492
C         7.61673686236012    5.76294625684345    1.89113263819064
H         8.60284190419255    5.61035968876030    1.47815144415702
C         7.04515375146868    7.02578424169835    1.87940971643181
H         7.58322191248898    7.85837321816597    1.45303243454738
C         5.78974246063634    7.21666463278306    2.42966580373494
H         5.34641914729938    8.20075056186782    2.43883174003535
C         5.09481160783950    6.15264268625345    2.97814622416151
H         4.12050881840383    6.32194337836643    3.41029410416498
C         6.10439553600387    2.80473690816479    4.83256983084374
C         6.93836791011727    3.72195233733193    5.47245557999623
H         6.84305958615366    4.77748315648708    5.25837844409743
C         7.88323358393124    3.28506570441666    6.38260647883732
H         8.52637081084399    4.00246623624561    6.86939016340798
C         8.00004798103457    1.93510022950434    6.67524940240725
H         8.73528427128894    1.59887062760716    7.38981108603951
C         7.16993800620874    1.01998285207297    6.04993643721942
H         7.24703818809721   -0.03210402778562    6.27974989999420
C         6.23052946134711    1.45127854930032    5.12999530016633
H         5.58539902902889    0.72922415652325    4.64914243121143
C         3.63536254148139    4.19147851723703    4.85163427429346
C         3.81630020672487    4.21442747325776    6.23106153764262
H         4.69107033605958    3.76620255845569    6.67873849466204
C         2.86779134908450    4.81330756886378    7.04248733216797
H         3.01097532590927    4.81920980706011    8.11233504645396
C         1.74025339094866    5.39941967284776    6.49182191370827
H         1.00621538870176    5.86475216207096    7.13139259188073
C         1.55709124460425    5.38520439312075    5.11853433903148
H         0.67953146172328    5.83689490843649    4.68048098232533
C         2.49793133132108    4.77988375654898    4.30673935877915
H         2.36055111538287    4.74953427059960    3.23351092549350

