71
CSD_code = NEBFUX | q = 0 | S = 0 | Stoichiometry = C28H28LaN5O9 | MND = 10
La        0.45206949929925   -0.47741380961738   13.46146960262425
O         0.46651808651198    0.00166558890338   15.77644577199746
O         1.80310020007573    0.17979474154408   11.60739850624574
O        -1.64507966311035   -1.10581338398818   14.46446560005523
O         0.87169186715748   -2.41830182910233   14.47801874763552
O         2.42821833858265   -0.98092202283627   14.35210189491098
O        -1.66044777278126    1.63126236884967   14.39549199072943
N        -0.70577429710242    1.04884144001508   11.76215364339845
C        -1.37533614522628    4.66125532644949    5.75778019422931
H        -1.46278403721081    5.20873196995731    4.83136664596300
O         1.40771167140117   -1.88739648978763   11.80452550020818
N         1.10713140284093    1.95326818489978   13.62078827247607
N        -1.19686844953408   -1.58813007355230   11.83974918544302
O         0.97928049881505   -0.89617110187886    9.97899274531702
C        -1.33999374620251    0.51169155449796   10.71702860577622
O         2.39794840275461   -2.37877831223761   15.94036568208688
C        -1.80221006794618   -0.88405751195609   10.87861792671715
C        -0.24992123494883    2.30032065102789   11.67137744992227
C         0.84618969987200   -0.62145504393912   18.04318116717629
H         1.31832572063569    0.35351064672218   18.13994905802148
H         1.63160465731992   -1.37558242118688   17.99085430164620
H         0.21754960113656   -0.82398444341110   18.90466834752802
C         0.06315676719922   -0.68956715167342   16.75259474374101
C         0.48090548317152    2.84003638946175   12.83932413974857
C        -0.39052081378996    3.05384990082703   10.51092423836457
H         0.01242025614949    4.05223660705364   10.45145924436609
C        -2.43815024558089    3.90198905293268    6.21875934069612
H        -3.35757834326183    3.86042459737649    5.65374968789747
N         1.90515535717046   -1.92848042295906   14.94542671545139
C        -1.02404206395935    2.49778107133624    9.40202003233036
N         1.39321659406572   -0.87211730638332   11.11241014449483
C        -1.51899319567404    1.20345890148847    9.52204424922591
H        -1.97139064935132    0.72275709922077    8.67064396911941
C         1.29111645647448    4.66576563575320   14.16217661764023
H         1.34058995270038    5.72182386032507   14.38447934791953
C         0.53627183906268    4.20978482778241   13.09501138147386
H        -0.02062095635430    4.90537098871611   12.48705728728558
C        -2.32531239925603    3.19457092400528    7.40109733148694
H        -3.16208850169457    2.61687355657859    7.76556117510178
C        -1.51072900648335   -2.86610807089691   12.00132148567933
H        -0.96296571966970   -3.38800185908472   12.77864624975210
C        -1.80591345262268   -1.74092745791940   15.55272881860292
C        -1.05785559962588   -1.53254898601950   16.71055453889199
H        -1.29941186080972   -2.10812999870739   17.58940487599617
C        -1.14855771693248    3.24643366620379    8.14483715664452
C        -0.08643756487580    4.01633993768107    7.67586717669470
H         0.83957482067358    4.04047589728246    8.23059308015655
C         1.85438102859372    2.39672931664723   14.62220984237033
H         2.36967765286435    1.63755616824044   15.19927692436464
C        -3.12687436882374   -2.77655398533404   10.25365570738798
H        -3.88812273830263   -3.23499027022767    9.63937325136415
C         1.98467398912176    3.74491975902506   14.92962263398524
H         2.60403201623567    4.06160965318327   15.75387302147812
C        -2.46593597635769   -3.50868059069673   11.22683994332870
H        -2.68618619661834   -4.55266137979390   11.38400250688462
C        -2.90899095532613   -2.77890131265407   15.60997821315405
H        -3.51632037396998   -2.71955755537111   14.71004936572353
H        -3.53339708777695   -2.62884523158905   16.48731204102914
H        -2.46330177476963   -3.76911649537062   15.67426835507402
C        -2.79223064802302   -1.44577060054961   10.07336305752658
H        -3.30072700131515   -0.85563432026716    9.32807941280986
C        -0.19924539326036    4.71371352935713    6.48757190074789
H         0.63392847638477    5.29899993847553    6.12798445780277
C        -1.64929035059484    2.33183198074798   15.62482001472082
H        -0.72095474424563    2.12117831960233   16.17304584281653
H        -1.66220125457482    3.39563264550901   15.36414350263803
C        -2.84851967128645    1.98267683839290   16.49803051429340
H        -2.83805388195607    2.57754740638671   17.40746495419955
H        -2.81208037277282    0.92899328740176   16.76931596398269
H        -3.77454021251557    2.17480390520477   15.96087572311621
H        -1.84768382988337    0.69119130442925   14.59445898044663

