49
CSD_code = NEBHUX | q = 1 | S = 0 | Stoichiometry = C17H23FeN4O4(1+) | MND = 6
Fe        6.61991804995102    1.97863793318128   -2.17164840685582
N         7.07952113248585    2.20470564273318   -4.13579795625268
N         5.74306500379057    5.62046944313010   -3.77939449640867
H         5.30380852615078    6.17686823098842   -3.06197485236842
H         5.87863005303708    6.02965967209112   -4.68704110890573
N         4.91863135366529    1.47177681691778   -2.78887570832861
N         8.40766923199111    2.61824020726565   -1.89927287487145
O         6.00235502898356    3.91065576815549   -2.34773315004509
O         6.13383336115690    1.84981384085655   -0.21884637042255
O         7.85106662632186    0.53457894384704    0.24064784842844
O         7.32364356360057   -0.04535500025116   -2.15719112827998
H         7.70558492630343    0.11376307447020   -1.21551816565752
C         6.84314344566199    3.58918913676012   -4.56982775696752
H         6.23020723310111    3.61744775806176   -5.47694215282349
H         7.79561332505955    4.08108956901152   -4.79016108997216
C         6.15486250773333    4.38541325457917   -3.46672302235249
C         6.19149389484906    1.25227333360061   -4.80698947025906
H         6.62185162754739    0.25514434368060   -4.69239540980195
H         6.08644785789647    1.45667114420959   -5.87945639511394
C         4.85294799149055    1.25664316411850   -4.11187247140746
C         3.65172275656992    1.02500084586960   -4.75762446982715
H         3.63157278148299    0.85237211079612   -5.82240551447113
C         2.47931207300097    1.01054200398509   -4.01277021169874
H         1.53105387732429    0.82714163979842   -4.49194730581251
C         2.55633382572304    1.24029549435209   -2.64718209962906
H         1.67055018269909    1.24091534661129   -2.03385572865325
C         3.79646321212307    1.47059405735153   -2.07843927611227
H         3.93476272323430    1.66613681097038   -1.02692796786975
C         8.50203890338057    1.84949831486828   -4.16678469087779
H         8.98469126693512    2.11968425382622   -5.11352839431067
H         8.58254843272882    0.76972636854924   -4.02620708704933
C         9.17924575314927    2.50495576120644   -2.99020579302007
C        10.48790578124388    2.95240262865557   -3.01497834482466
H        11.08441839202630    2.83737873315710   -3.90649132463919
C        11.01983843431714    3.53811722670279   -1.87353186382310
H        12.04228642929100    3.88041943537348   -1.86100843805718
C        10.20533688552762    3.68352334868740   -0.76206586068809
H        10.57096504024412    4.14669869515942    0.13924517800366
C         8.90409337781428    3.21467222909692   -0.82344033037509
H         8.22308967190886    3.31080546673049    0.00611293352540
C         6.87621347054466    1.22792590861037    0.58984436005201
C         6.53368874130931    1.34150896946288    2.06314878688114
H         5.84027163227202    2.16001023923666    2.22752034544210
H         7.44474707793692    1.48582281068254    2.63687215888710
H         6.07752578336556    0.40848538901893    2.38704789248308
C         6.43594620160281   -1.13717585770777   -2.00359381480087
H         6.99754665529860   -2.02788534649376   -1.71214801640608
H         5.93850325222443   -1.32574880271400   -2.95537272055556
H         5.67893264394473   -0.92931035924964   -1.24456826310593

