64
CSD_code = NEBKUA | q = 0 | S = 0 | Stoichiometry = C27H25BIN9Zn | MND = 4
Zn        7.13898439067153   -0.91738807528134   11.27677332778808
N         6.24543198922884   -2.12815208614861   12.59938514414261
N         8.85177657017175   -1.95816490446579   11.39328187293015
N         6.32740081418805   -1.94867651327535    9.73806679684069
I         7.25142647482038    1.55243736777167   11.21785270890670
N         6.52387081105907   -3.41940524806882   12.34786231959087
C         6.10304474468417   -4.18286261421270   13.37295908334147
C         5.54006887798381   -3.34795706127694   14.32093050687982
H         5.09640531988960   -3.62989023709018   15.25335242660748
C         5.64711404117789   -2.05906818954921   13.79060812304889
C         6.24871314802647   -5.65992760465683   13.43003540254010
H         5.81854361176036   -6.02916140408513   14.35694468729396
H         7.29872659381693   -5.94463357317705   13.39121347796984
H         5.73839611500064   -6.13118396018025   12.59198036103757
C         5.21274928024793   -0.79936800429345   14.37496912727759
C         5.32846400896759   -0.57233465046684   15.74784292930532
H         5.74651269188034   -1.33037413822748   16.39789270461754
N         4.96219869617200    0.54871846970202   16.33448221620966
C         4.47207767692876    1.52067504072370   15.58319352165890
H         4.19565093065928    2.42347804118576   16.11058276244772
C         4.30629651178701    1.41003031940567   14.21013578567428
H         3.90336007004675    2.22737468905286   13.63398703661044
C         4.67121444576942    0.22421828353412   13.59987170863217
H         4.52006961472235    0.07801852454712   12.53921979282775
N         8.68174407280537   -3.26074814800497   11.11430854922355
C         9.87585140717531   -3.84694614327537   10.92057196514174
C        10.85200831216922   -2.87912010219763   11.08183629373283
H        11.91271237955679   -3.00616825246120   11.01058110860959
C        10.16116879354724   -1.70369746788730   11.39014733041002
C        10.05036729830102   -5.28337794391973   10.58592035125099
H        11.10992729154270   -5.51406702358701   10.51803079782218
H         9.57878422671162   -5.51496027915698    9.63208378562596
H         9.59870133718916   -5.91559960140606   11.34806999685919
C        10.70637937602299   -0.40082126382792   11.74995066834241
C        10.26444332967005    0.26110797484620   12.89763369916490
H         9.50388599913207   -0.18172327877350   13.53073203778687
N        10.74041373904666    1.42146959390160   13.29692181533930
C        11.67687162699758    2.00088104774562   12.56677396237603
H        12.02298241730118    2.95967621776210   12.92768546057876
C        12.20086843276578    1.43355143310837   11.41393603739891
H        12.96940523377473    1.93976376885654   10.85100372588298
C        11.71152835114506    0.20675763838028   11.00240635445673
H        12.08516684341772   -0.27116541928412   10.10756765776940
N         6.55061781300253   -3.27050004940507    9.84435465861977
C         6.11763049145756   -3.89924063510887    8.73705663878039
C         5.59919543014067   -2.94230882181403    7.88394482596177
H         5.15833139013602   -3.09775513514965    6.92097002439414
C         5.74306516467098   -1.72656654174663    8.55827781006147
C         6.20319627389409   -5.36639325687313    8.52193043845315
H         5.76786581709180   -5.61554234569600    7.55809391278198
H         5.66489995916004   -5.90202489690160    9.30173145773175
H         7.23918160529716   -5.70024224805328    8.53671989515461
C         5.31879524207695   -0.40751165719405    8.10861266015889
C         5.55945989566058    0.00676794805851    6.79772448166945
H         6.08627218234749   -0.63794286266474    6.10547431968842
N         5.18648227442804    1.17767133229009    6.32315029648288
C         4.55916610926453    2.01276341117009    7.13452894122142
H         4.28001745857397    2.96309902496147    6.70036014609612
C         4.26020588053400    1.70965239033567    8.45459183304797
H         3.74703486520086    2.42061002451646    9.08166198607331
C         4.63745386521552    0.47302596574384    8.94514444326702
H         4.39234074859481    0.17899644015462    9.95623549852267
B         7.26388593370574   -3.85761049943578   11.07223762565086
H         7.30789370158992   -5.03256280951751   11.00311268420407

