93
CSD_code = NEBNEO | q = 0 | S = 0 | Stoichiometry = C30H60P2Ru | MND = 8
C        11.06956067338700    5.01126695044868    8.28334322674382
H        11.35013984498762    5.32282535839393    9.29584474739379
C        10.78256962710835    3.49358682711571    8.27974978292757
H        11.42807740879310    2.97053917350319    7.57287386943430
H        10.95271741442055    3.07430100160794    9.27244406729788
C         9.31013651750756    3.34236507987129    7.88552052579979
H         9.22852181926728    3.23040681842109    6.80328553901918
H         8.84371439540468    2.47943360611797    8.35909971780085
C         8.68054482482705    4.66479693898335    8.30663618153116
H         8.54105469709646    4.68982975689376    9.38968401504401
H         7.71909723872947    4.84774092477811    7.82830071077465
C         9.74391895613595    5.67377816323814    7.88644837448151
H         9.60789170559235    6.64942867994057    8.35071694156510
H         9.69924235734146    5.79131146378468    6.80049957859320
C        13.89594937922185    5.06114116160462    8.35253258724666
H        13.64999219486571    5.57395528172909    9.28999892690784
C        14.08051693099483    3.57053204004689    8.64703115310268
H        13.37062510314573    3.19836456785215    9.38344327065115
H        13.96685601443813    2.99166743059034    7.72772151135503
C        15.52368287175651    3.48625962528395    9.13315731897788
H        15.59395869986107    3.86916393321791   10.15349154595297
H        15.91254240928747    2.46871121652370    9.11980216084471
C        16.26698267248250    4.40932409157398    8.17011010476171
H        16.51541743619304    3.85968005996413    7.26142060882275
H        17.19500225750349    4.79049049455255    8.59542178502584
C        15.27251535708014    5.53784312540477    7.85136472088139
H        15.24484598320534    5.72442518570835    6.77505711842440
H        15.56172849376780    6.46667474829235    8.34471033934756
C        12.62061413042664    7.32259276769837    7.30838840421409
H        13.64188564067043    7.52140627138028    6.95711332664269
C        12.46591427688528    7.94882745908855    8.70253514343414
H        11.67438684177637    7.46117743066520    9.27080353297143
H        13.38773649594114    7.90406027082025    9.28160288416376
C        12.04848092695513    9.38490939470296    8.39878038963217
H        11.62115021292632    9.88851335135613    9.26560973926026
H        12.91126939274258    9.95857134476547    8.05547914568600
C        11.04714835700617    9.21483643900409    7.26070605146304
H        10.89971040072934   10.13375899884833    6.69511600928629
H        10.08060651163246    8.91012030160080    7.66512362274855
C        11.64195837230845    8.09693579107169    6.39668441069180
H        12.18221216488280    8.51794492080094    5.54865212639995
H        10.86517704333978    7.45013125651041    5.99191804427968
C        13.39904295568193    4.57803839057883    1.38598505871705
H        14.17321436218072    4.19934853716544    0.70868003255200
C        13.37959894794323    6.12058662059378    1.33860636395375
H        14.16693275356996    6.48951850862100    0.67975846304589
H        13.53613905148457    6.54946979359825    2.32813417828550
C        11.99931200716709    6.51076532535364    0.80080417426799
H        11.31077689803920    6.65926171100240    1.63377381458914
H        12.03003703485556    7.42473828070727    0.20895510598915
C        11.55969892924544    5.29495652915041   -0.00508137108926
H        10.48662031592606    5.27638955396686   -0.19111136290109
H        12.08010021150721    5.26890924841347   -0.96503665796085
C        12.02039169557963    4.13723220494443    0.87424167269991
H        12.05748449711042    3.19268368197854    0.33189445290734
H        11.32762906201330    4.03266180398951    1.71504270539864
C        13.60171798178186    2.08513921339378    2.69866897763382
H        12.53482171590956    2.02059219059871    2.44545442219392
C        13.86284520711834    1.14115275908965    3.89381858660711
H        14.44693251130319    1.62925164525995    4.67201866399758
H        12.91649262695036    0.84128357605857    4.34306866506746
C        14.60493000089961   -0.07524286625171    3.32302592083698
H        15.67620521553771    0.00644008175823    3.51732292328834
H        14.25653852075002   -1.00936440035799    3.76111700663908
C        14.35352374742177   -0.00882713943356    1.81912009017254
H        13.36061464887748   -0.39760183266759    1.58678940040803
H        15.08881992611727   -0.57130153305985    1.24412268225241
C        14.40526466380212    1.48907345440578    1.53489222319385
H        13.98417082749297    1.74244181625518    0.56293745595467
H        15.44475899224667    1.81582936027956    1.55995383812144
C        15.67251572386362    4.13370280504315    3.00219698489616
H        15.98044775737036    3.78338856520060    2.01012592390812
C        16.12679826426948    5.59668875836583    3.16949865258616
H        16.32700006117116    6.04971130165843    2.19889623541747
H        15.35134317471376    6.18835994546691    3.65810394916584
C        17.39194378357377    5.56277219202607    4.04461890026323
H        18.18408327045449    6.19162846454884    3.63995798294335
H        17.16258670272533    5.91793357645760    5.05037624474430
C        17.79761265055555    4.09146456978705    4.10526386871016
H        18.37794380724059    3.85559042293430    4.99690597373833
H        18.39113770369082    3.82539544746964    3.22799548886968
C        16.45872773059751    3.36317112648626    4.06378163368770
H        15.96065441480927    3.45879173275259    5.03167764393652
H        16.56630662431812    2.30646698046590    3.82324442068658
P        12.50287654956802    5.46080763958695    7.17235316422455
P        13.81814239794469    3.90038830819445    3.07899062524675
Ru       12.60243768275589    4.63497755999300    4.96125631379635
H        13.77308473187302    3.87498337686012    5.58165687065265
H        13.74752466123130    5.64867596177321    5.01774211516508
H        12.22724310915549    5.95117287428468    4.27240770281716
H        11.13159355087873    4.87426301558866    5.34055085459964
H        11.63957464140177    4.14360723517649    3.86150520896399
H        12.17235164463217    3.23070192079970    5.40321249261399

