53
CSD_code = NEBNUE | q = 1 | S = 0 | Stoichiometry = C17H27N6O2Pd(1+) | MND = 4
Pd        3.39230970375495    6.43910800742152   15.30434947090103
O         5.09047085946407    7.05377625466416   16.37518358111255
O         5.01635813667206    8.37924515569702   14.62180392796784
N         5.42235985034115    4.27939855463011   14.83348806300960
N         5.23143006235131    5.45293175041018   13.04686710069560
N         1.10993443339184    4.69421729638493   14.35058442452120
N         1.22023320339843    6.56032941552021   13.29708734117821
N         1.93048119351926    7.17789564590234   17.80872273520037
N         2.14112261984237    8.96289260788360   16.63877453841112
C         4.69435505598700    5.26042813534267   14.26401151167950
C         6.39744198472922    3.85197543438963   13.97426281615938
H         7.09079886235278    3.07727133472188   14.22793552887167
C         6.27608062599564    4.59384060661013   12.84777350322691
H         6.84802387823134    4.58144695290724   11.94323645568542
C         5.23964450508197    3.77945283998026   16.17202694592834
H         4.79480238890377    4.57184666297354   16.78665763433694
H         6.20764168648241    3.51604241772340   16.59681522539327
H         4.60440431772194    2.88885624129473   16.17450103454128
C         4.80782344583054    6.46005618505989   12.10881820563897
H         3.83773789290700    6.19714138302640   11.68159874212858
H         5.53981871219943    6.53583353188987   11.30777171188246
H         4.74362576278736    7.42147247133484   12.62810317643170
C         1.80422511599261    5.84372435954409   14.27281936439211
C         0.09063327368211    4.69386772438818   13.43349873601858
H        -0.58689051145578    3.87243017699589   13.32767539924520
C         0.16047070216151    5.87110825621159   12.77026060990520
H        -0.44623458763130    6.26186713839987   11.97997128335083
C         1.39583544225000    3.60436407576516   15.24372748989135
H         2.34441866903422    3.81352062479509   15.74571863710730
H         1.47763094270928    2.67219008749182   14.68322360736447
H         0.60297337402133    3.49651299979773   15.98613529670334
C         1.65042111551846    7.86412424480954   12.86423940843637
H         2.58969878663542    8.10525735806622   13.37774755272926
H         0.89158624057109    8.61083888974003   13.10440702595896
H         1.80924727404112    7.87078544907709   11.78529429949617
C         2.33419067679239    7.63119226405806   16.60400622153046
C         1.47044886051685    8.20908220237958   18.58102583385663
H         1.10279243606179    8.06595305960193   19.57582998818485
C         1.60398084526394    9.33434206441108   17.84164111958234
H         1.37199497974094   10.35250472989759   18.07626093129647
C         2.00167436781447    5.81007903491088   18.25055169814712
H         2.67479442548427    5.26369718533242   17.57666225162719
H         1.01092867113354    5.34855216377399   18.24190554930303
H         2.39979651084900    5.76937574155165   19.26475447505723
C         2.47380634133504    9.90700448560356   15.60249243125169
H         3.30243043871527    9.51598945179303   15.00532206827963
H         2.78750926143005   10.84459749850627   16.05922685539921
H         1.60951055173043   10.10272068324547   14.96494602300980
C         5.56504408906938    7.98949153486501   15.66759334163967
C         6.84455849597512    8.64107282138818   16.15172194934751
H         7.19402451937639    9.36112290270427   15.41838270724072
H         7.60254207380354    7.88022779194353   16.32134015009276
H         6.65425743540475    9.14324411317640   17.09784401964539

