67
CSD_code = NEBNUD | q = 0 | S = 0 | Stoichiometry = C21H34BFN6S3Zn | MND = 4
Zn        5.75782126469332    3.32323726752891    5.54855329262322
S         7.88682138624801    2.60586017252317    4.52470050124129
F         5.75677400220626    3.32307465786669    7.29979788353152
B         5.75788285085236    3.32373624952745    1.99287674389805
H         5.75838001042289    3.32390010099232    0.79922912884754
C         7.08288790071574    1.55507148802507    3.44982145969951
C         5.84349190926879    0.81080673633948    1.81276106950411
H         5.17032887918191    0.86135175789414    0.98314310294839
C         6.40102905710098   -0.25883427402697    2.41840933484233
H         6.28741929552891   -1.29505373927273    2.18941364572199
C         7.35098456160223   -0.38443492822505    5.80574054604415
H         7.55466877391123    0.62593020674935    6.14875364690796
H         7.80016579005986   -1.07759542718051    6.51112736243299
H         6.27266054681652   -0.53390054924583    5.80506756551917
C         7.92077564369468   -0.62708170920251    4.40553310418188
C         9.40944412229284   -0.27830524232483    4.33517047330645
H         9.79302739078821   -0.45648601614129    3.33223810464014
H         9.96141535354850   -0.89788245862202    5.03607379028493
H         9.57330594878813    0.76367785445602    4.59162043187346
C         7.74416891108435   -2.10498558548005    4.05208444549473
H         8.12171734121335   -2.32373463678499    3.05539191355271
H         6.70150601520987   -2.40545506414461    4.12350698529049
H         8.31269200904470   -2.69924603134014    4.76259992725635
N         6.26980062851482    1.94218440034930    2.45191265780955
N         7.18564186260820    0.20482206075442    3.44245545311265
N         6.69844088110043    4.45776228137631    2.45183194826715
C         6.62671168072889    5.35550303722582    3.44957302264169
S         5.31425563194795    5.52498942606749    4.52413297912089
S         4.07050584238548    1.83907637463155    4.52462434178884
C         3.56356054075906    3.06154383427197    3.45018209686541
N         4.30556993354124    3.57182445091555    2.45222314470660
C         3.53916108058952    4.50689685313518    1.81302023003610
H         3.91959853791443    5.06432442447239    0.98326604789279
C         2.33399183258120    4.55913208858671    2.41855325740087
H         1.49341979049333    5.17554067708823    2.18927284686433
N         2.34288245572050    3.64768463047612    3.44246691307237
C         1.25448944841796    3.42647495811255    4.40494559095091
C         1.74962798307820    3.79684473823227    5.80559074088520
H         2.52233946621980    3.11456392089951    6.14821285433209
H         0.92449553577326    3.75417512034589    6.51064879119796
H         2.15979688911293    4.80522047569499    5.80600712863036
C         0.81187435610706    1.96305020591185    4.33321197054040
H         0.46599278498504    1.72109848770441    3.32992494226731
H        -0.00098006261050    1.79436815132138    5.03367110448844
H         1.63211062501327    1.29963992594162    4.58921866057006
C         0.06344216469349    4.31932522214362    4.05209682484366
H        -0.31506654317698    4.10266700660111    3.05530674553303
H         0.32527256153751    5.37230411745519    4.12424103455764
H        -0.73545868670987    4.12413109301441    4.76260807783366
N         7.74431884086746    6.12034662604890    3.44202126295889
C         8.53841224262416    5.67276311921957    2.41811561197256
C         7.89133496153678    4.65465363755453    1.81268832280838
H         8.18442179087403    4.04638615677880    0.98320682082971
H         9.49244896324216    6.09283814624928    2.18900139710603
C         8.09715837505072    7.17326984145179    4.40486613232945
C         8.17376098142627    6.55865962875847    5.80501017264115
H         7.19760555121692    6.22902541560518    6.14883415604536
H         8.54944629756667    7.29438632507702    6.51026189562092
H         8.84295877771889    5.70004305392066    5.80370829860126
C         7.05058000695884    8.28805314538805    4.33525156293651
H         7.01212701079681    8.70918921320766    3.33223856108854
H         7.31154796388617    9.07599281830002    5.03588346557323
H         6.06654893349961    7.90886611006883    4.59259523622997
C         9.46475239298375    7.76031172330664    4.05061421410051
H         9.46455372005885    8.19634202811106    3.05378903913421
H        10.24695331355529    7.00823985797887    4.12180077531803
H         9.69502369053519    8.55023436033764    4.76069920885538

