22
CSD_code = NEBQIU | q = 0 | S = 0 | Stoichiometry = C10H7MnN2O2 | MND = 8
Mn        0.44208897253272    0.72659906216690   10.17129966951439
C        -0.29883113087790    1.94988850111129   11.22953323456623
C        -0.97577499053788   -0.34227348024351   10.28563866812550
C         1.29617153063234   -0.11463796589953   11.53687914384973
C         2.55144362012142   -1.51837426677615   13.26793961299382
H         1.82374416146541   -1.84762006271534   14.02347304925936
H         3.40089587461202   -1.02643910787841   13.76304168956299
C         3.41462233770537   -3.55913479373655   11.97122310541743
C         0.59794759751936    0.29206591504525    8.05072041483221
H         0.06490905141818   -0.42158876816092    7.43622103490502
C         1.30620384211883    2.28451427798545    8.92704716085492
H         1.40508497391231    3.34935367103201    9.09237643256386
C         0.24815489657981    1.65154178643854    8.22984575418569
H        -0.58284566986438    2.15569088268597    7.75508349252929
C         1.85245069870692    0.07705114522749    8.66309643375140
H         2.44937912389813   -0.82176987627612    8.57967777279953
C         2.29209467455017    1.31310593212342    9.20214936640846
H         3.27831734720069    1.51070270157953    9.60154295065264
N         1.93727832906750   -0.60828389893264   12.39656123221653
N         3.02617798762889   -2.64487525101887   12.57362175308541
O        -0.77069336373006    2.77824331543744   11.87611379212298
O        -1.89421986466192   -1.03705971919254   10.30721423580535

