44
CSD_code = NEBSOC | q = 1 | S = 0 | Stoichiometry = C12H25O6Pt(1+) | MND = 6
C         1.18805176942561    1.21125346468329    6.98473400426032
H         0.61616265071407    2.12167756535659    7.19955829396719
C         0.35743038503143   -0.10332540221671    6.93090756279214
H        -0.71685876648913    0.05747530611897    7.09141963664676
C         0.64627599351269   -0.67277298629658    5.52473414254196
H         0.81436695816470   -1.75528269426946    5.60713807456186
C         1.95125447394758    0.07984290882463    5.16873654393038
H         2.76754376922065   -0.43121303040532    5.70148992740380
C         2.38259576192113    0.30777112677842    3.70995635150518
H         3.36504204423703    0.80156462535233    3.76916285833995
C         2.56859343239647   -0.96240709130215    2.86617559505781
H         2.93262506079239   -0.65329991199565    1.88177178230671
H         3.31868208546120   -1.60352344093000    3.33731640326498
C         1.75496991155422   -0.13479546794942    8.75553544674238
C         0.97916520618763    0.34558243022786    9.98182216335837
H         1.61907784036703    0.98288643126522   10.58366912453030
H         0.66334463360724   -0.51166296894111   10.56811707495786
H         0.10151973991087    0.91228058019917    9.67952476040654
C         2.97868015779928   -0.95075952845690    9.14519713176732
H         3.62907047779223   -0.34389734167827    9.76580906408801
H         3.52234299209351   -1.25762476213191    8.25602026985628
H         2.66258461545079   -1.83173047025964    9.69381520380947
C         0.11158974223112    0.19695544887819    0.22670557836418
H        -0.71510335244235    0.52889350141247   -0.39463143115639
H         0.48580236156127   -0.76265970867116   -0.13239250568239
H         0.90742023441784    0.94437926248494    0.21725132787469
C        -1.64061199496877    1.50033386541933    2.12368486594194
H        -1.98291607198012    1.63421812864968    3.15275314736517
H        -2.49893049908659    1.35714757617603    1.47270512693583
H        -1.08695813916030    2.38375697345614    1.80235255281349
C        -1.81475335045028   -1.36222207313199    1.69799543172856
H        -2.55321733677653   -1.35870117463966    2.50289748021408
H        -1.33681692075884   -2.34297669736411    1.63699565395442
H        -2.31918887017357   -1.15724802331734    0.75769055305590
O         2.15403344392599    0.96741738013707    7.95113299934300
O         0.91030623434946   -0.92367515040064    7.91016172423292
O        -0.40364462475399   -0.38881371421539    4.62252519375903
H        -1.23671530458146   -0.70804179040039    4.99254005880440
O         1.75171568059266    1.37492046823788    5.71811214051550
O         1.48918638683733    1.17830997396512    3.04438390550191
H         1.29983954263233    1.90821145475742    3.65355032435747
O         1.37576776133043   -1.67995664047756    2.62079351667104
H         1.17884129209459   -2.26566058730602    3.36079914375553
Pt       -0.34076740793868   -0.05582781562388    2.18908179555500

