79
CSD_code = NEBVOG | q = 0 | S = 0 | Stoichiometry = C36H38Cl2P2Pt | MND = 4
Pt       12.23194114415564   15.91963860230772    5.78355953461252
Cl       12.07659889373496   16.77792161190112    7.90685511856149
Cl       10.70241384004265   14.30611159975060    6.36623534221964
P        12.48503638775397   14.92650621052734    3.74648240677118
C        12.13658223435083   13.14155063121740    3.75263468998860
C        12.63876349390253   12.41666527984941    4.83327307108904
H        13.18345754020678   12.93641152224036    5.61323616531629
C        12.40127703511305   11.06068997968217    4.93588608371919
H        12.78848992172488   10.50744107761460    5.77846543300585
C        11.64547948198670   10.41677009020897    3.96858806542186
H        11.44964905991287    9.35798878907835    4.05194487920736
C        11.12146406506606   11.13609050846568    2.90906890416148
H        10.51341028965253   10.64005861203091    2.16641949391918
C        11.36069162569917   12.49596683343673    2.79899995599354
H        10.92758384009574   13.05022097150522    1.97891814291961
C        11.35662798261157   15.60506787798084    2.50137546096314
C        11.47010045943227   15.31633724186541    1.14470490241969
H        12.28803956886270   14.70023529221259    0.79466790133731
C        10.54029673578995   15.82390292125145    0.25427704120417
H        10.62217428616227   15.59607584334245   -0.79913514563088
C         9.50444946882828   16.62412710911101    0.71030809950404
H         8.78257833369892   17.01775701439420    0.01002558233700
C         9.39177015471215   16.91699182230199    2.06018649382368
H         8.58217038732181   17.53854722324924    2.41255476496765
C        10.31321388022453   16.40413000356244    2.95442323421782
H        10.23716627073217   16.60728043099803    4.02003687393713
C        14.15139422438570   15.07379885185694    2.99519497989069
C        15.02270199978151   13.84564301127359    3.08143371304730
H        16.06056878845114   14.13050183400087    3.26440021000466
H        14.70255475288853   13.23837874314744    3.92900863175453
C        14.92701342554027   12.99802392934484    1.81266333791354
H        15.56814823299580   12.12349853985639    1.89504851580789
H        15.23308700666214   13.57087642645167    0.94021108982212
H        13.90399786397833   12.65806335792753    1.66431217605928
C        14.57401498499605   16.23283623891165    2.46645820136266
C        15.91092909524970   16.39730310924295    1.78482205490062
H        16.50670149995771   15.48968951276851    1.84176079188045
H        16.46365428198238   17.19371102782405    2.28867075817103
C        15.71471430362112   16.79526622923436    0.32120264967920
H        16.68882977871436   16.92648504125195   -0.15442835310721
H        15.18479967567650   16.00011225032851   -0.20843826169785
C        13.75180329804996   17.45907885645566    2.36723269662544
C        13.55766652118954   17.88965224103196    0.93291651605991
H        13.00951216106491   17.10373125599931    0.40734776965517
H        12.97714500146377   18.80602623049363    0.86190627466940
C        14.90930100320931   18.08298799865496    0.24404341692178
H        15.46022250664297   18.88876497294860    0.73493484248706
H        14.74913783668834   18.36993144652789   -0.79727711312219
C        13.32149055434935   18.17596853168027    3.41759522559475
C        12.49699296243577   19.43069536551420    3.27103159950882
H        11.87445033000026   19.55505773607297    4.15762577469205
H        11.82398589071742   19.34605868255883    2.41581500154554
C        13.38387039407192   20.66693745427151    3.12175031096068
H        12.77169196936975   21.56013231559044    3.02171793046479
H        14.02036203400153   20.58286418241329    2.24378928009453
H        14.01672133169682   20.78331226481011    3.99940279405925
P        13.60375572448450   17.62351725769346    5.14300239544880
C        15.35537060312570   17.16193103423458    5.21770559613583
C        15.67971138382338   16.01077876597188    5.92639193502445
H        14.87534329210000   15.43209921403647    6.37475596236154
C        17.00025482292667   15.62354811698336    6.05838872557929
H        17.25075817152355   14.72744037641123    6.60632781802066
C        18.00364790297357   16.39377389597995    5.49205054670652
H        19.03676349435160   16.09724609796378    5.59750443463064
C        17.68646135604772   17.54776660529359    4.79305208314667
H        18.47321485061306   18.14780192661116    4.35811403125729
C        16.36506488454111   17.93344842309905    4.65092640620783
H        16.10857910385941   18.82865348572342    4.09946916829974
C        13.49636142738611   19.13303540274647    6.15345159237126
C        12.21906782372599   19.54551922352531    6.53302020096945
H        11.35902473849382   18.95861673314000    6.23490558053504
C        12.05277179346876   20.66375727362391    7.32605116830015
H        11.06061256833611   20.97323778114836    7.61874748049966
C        13.16011153218954   21.37225302456826    7.76442706277565
H        13.03271844588147   22.24114238342102    8.39304709475141
C        14.43126736777993   20.95065988373328    7.41570617849291
H        15.29735660606887   21.48778801447108    7.77449772957288
C        14.60368171828888   19.83279283458515    6.61686448452708
H        15.60251029641690   19.50321950640674    6.37064701258987

