69
CSD_code = NEBVEW | q = 0 | S = 0 | Stoichiometry = C26H38N3PPt | MND = 4
Pt        2.97594643660726    6.00283455457642   11.04867658700098
P         3.03715656776353    4.70736651429238    9.20583813594697
C         2.82945732226492    7.90942700285315   10.10693114318378
C         1.50519535505168    8.46802367712465   10.12066839887739
C         1.20623337105596    9.72190200414074    9.56317505014919
H         1.99676831359635   10.29350677584214    9.09525547266399
C        -0.07675376943005   10.22272158449013    9.60764594387992
H        -0.28573340710714   11.19035848648846    9.17256464996536
C        -1.10070858191228    9.50010655122397   10.20291341053305
H        -2.10358073200066    9.89952140259227   10.23310367493111
C        -0.82395091943285    8.26009105812249   10.76045055641729
H        -1.61557643746806    7.69023861496362   11.22822838172567
C         0.45541253380341    7.75236517997695   10.72337757149926
H         0.67429646677342    6.77632000537623   11.16708823472461
N         3.83312580646677    8.54727197047017    9.72179016766161
N         4.84792775364554    9.00440229888065    9.43122768801638
C         2.72181478604215    4.18936770325225   11.98746201256717
C         2.17613313201807    4.11424002256160   13.27116871304027
C         1.84076033581287    2.88972019997398   13.83325050714046
H         1.42101859073883    2.85684883747641   14.82992317906108
C         2.03006129020669    1.71547476589857   13.12920520855383
H         1.76445606233763    0.76631661956693   13.57127466789927
C         2.56030051165180    1.76736419244228   11.85353342099022
H         2.71044695344555    0.85418419589995   11.29235883512720
C         2.89253426895504    2.98980787096736   11.28772716435265
C         1.99440969703869    5.37554592484782   14.07864511071437
H         1.69865574750779    5.12095563586365   15.09826357278252
H         1.19797686746172    5.98948995731879   13.64828399290799
C         3.30327213382309    6.16705603963771   14.11341875235058
H         3.35680079739597    6.77697051696518   15.02692579212402
H         4.12955937890597    5.45073117027520   14.14002712103323
N         3.46897932612634    7.03651832727525   12.93862410957191
C         2.76799539857394    8.29776489456941   13.18966803384307
H         1.70215206302252    8.12251013708962   13.32721394385699
H         2.89343139748341    8.97773550173642   12.34897394286916
H         3.16363762352853    8.78438017206244   14.09082797099818
C         4.89743813963888    7.32517892231591   12.75861577441740
H         5.04534283023200    8.03357484284898   11.94368408029077
H         5.43642343976833    6.40415755714742   12.52731569192464
H         5.32283698136155    7.76345108800695   13.67108445621860
C         3.46997579293208    3.05320959516704    9.90082340400646
H         3.12938610115179    2.22805859792809    9.27136647995106
H         4.56041435154195    2.99356887897955    9.97047470315069
C         4.48756495238580    5.07553157308017    8.05796866496684
C         1.41313215556923    4.41102506458016    8.29480865668544
C         4.96728637234618    3.86295946547683    7.26025884681485
H         4.19137814842239    3.47320662464470    6.60875402822503
H         5.31041434182508    3.06059872286983    7.90811068177291
H         5.80699463191576    4.16522636178519    6.63511405657434
C         5.59831862463538    5.52884197744860    9.01082320124369
H         6.50659678758139    5.75214545792086    8.45348949182734
H         5.83149313220873    4.75841740584031    9.74522922117083
H         5.29867181098282    6.43317509674110    9.53919946236684
C         4.14708058787623    6.21737524900998    7.10339033786968
H         5.06091573694915    6.62174900265083    6.67072510555858
H         3.64095322710211    7.02158616097200    7.63171602016602
H         3.51348985226212    5.87471764157017    6.28856896496146
C         0.85129348715092    5.74636646151342    7.80884903119664
H         1.42769410112941    6.15159293543029    6.98318092959889
H         0.84674519229254    6.47321374022309    8.61734795616406
H        -0.17442164597785    5.61207291059246    7.46789889390218
C         0.47254723086449    3.84863690629998    9.36411029878310
H        -0.54884403111723    3.82171124866805    8.98777014388991
H         0.49518688586190    4.48261015415260   10.25188331001850
H         0.75429095133001    2.84087930912616    9.65974426337563
C         1.51700774620113    3.43636439224072    7.12541016119171
H         2.00113078973757    2.50559178147306    7.41291383050459
H         2.06070032286888    3.87623736218996    6.29296940355429
H         0.51434852940145    3.19452714414961    6.77418932859472

