48
CSD_code = NEBVAU | q = 0 | S = 0 | Stoichiometry = C21H22N3ORh | MND = 6
C         3.20816095704074    1.90480658583172    6.23861615647418
C         2.97407948673335    0.82984997705536    7.13932347447464
H         2.50170183223845   -0.05352161429893    6.73601189888352
C         3.35049005040750    0.89537801320659    8.45039593091612
H         3.16956425845664    0.05441851947776    9.10455460723707
C         3.97626831805542    2.04173833438935    8.96023097556129
H         4.27304758649352    2.07780830263005    9.99718408414508
C         4.19924053669429    3.10793243894316    8.13503249513273
H         4.67252921100148    4.00220323580495    8.51773751544848
C         3.81393813659795    3.08535817648098    6.77834228994351
C         3.98693859259586    4.25504152937503    6.00764506653360
H         4.43336419373833    5.11059282503099    6.52120882479240
C         3.40282268832964    6.68914319602327    4.72410817540192
H         2.85836618422974    6.67407304857532    5.67583312949048
C         3.55968701559892    7.97080834266340    4.07373863355429
C         3.09341976166649    9.13943868149195    4.68124050823505
H         2.60905417299492    9.10265425269951    5.64577692450831
C         3.26568814238565   10.34405386587119    4.02193887283417
H         2.91899818322104   11.27191503405432    4.45855083920634
C         4.29081601464185    9.34757143443077    2.26099736618293
H         4.75953219186250    9.48534129174699    1.29524585085680
C         4.17753671682463    8.09082166996076    2.82443653677929
H         4.54754356048908    7.21061242001688    2.32442614511487
C         1.75270172434105    1.75874310639560    2.35868946257349
H         1.13963161859393    1.23988799514135    3.09560167595391
C         3.04203617726615    1.29350933139513    2.15654585743262
H         3.37189225694522    0.45430496707050    2.76673696478486
C         3.81621436795079    1.49235888188592    0.87214368738517
H         3.11821272523357    1.53951150872075    0.03592844891166
H         4.46038526724854    0.62690119529684    0.70620123338441
C         4.69077226490636    2.75923059321472    0.92241520492926
H         5.67158418568706    2.49597890460475    1.32622376732328
H         4.85089652238929    3.14792462737853   -0.08925813529520
C         4.10933653766656    3.85246140212596    1.79112853215183
H         4.85658309714498    4.55868072637800    2.15147579025785
C         2.78603389521105    4.28080459891373    1.74674662113622
H         2.57499592544030    5.29170937189331    2.08891717702387
C         1.76508585965654    3.73973575040322    0.76650261892288
H         2.27364361983988    3.43206509060476   -0.14742620169093
H         1.07430167256873    4.54057866932529    0.49539528719456
C         0.96006475819690    2.56975620251383    1.36021289651546
H         0.07896165588603    2.96729046474041    1.86972003666541
H         0.60263793967055    1.91129004719120    0.56118376803297
N         3.68933946766146    4.41976862768949    4.74614152296348
N         3.84047797545226    5.61997253810239    4.17810806857917
N         3.84804294242996   10.45380624205745    2.83980775911669
O         2.88716577127843    1.75377929956395    5.00970583092914
Rh        3.09551397903267    3.00831029593519    3.44937582311522

