67
CSD_code = NEBWAV | q = 0 | S = 0 | Stoichiometry = C28H20N18Zn | MND = 6
Zn        6.53446937765196    5.15940156276585    4.42993942581420
N         6.12669264957698    7.09511448164735    3.67957458623881
N         5.26345014884317    7.73980460174028    2.91954521248080
C         5.80179887715544    8.89546813960742    2.58408552638827
N         7.03961434014194    8.99986279557979    3.15754289647100
C         7.20403575623729    7.84210604045731    3.84723131689897
N         5.89352791581197   11.00049970588174    1.47579475054581
C         5.19437479216848    9.89071669387110    1.72630813271932
C         3.92855080044941    9.66314989729775    1.18245553806235
H         3.41647281816424    8.74514124173607    1.41648297486137
C         3.38396527041425   10.63155543332063    0.36106697537012
H         2.40643536761736   10.49214752532670   -0.07583209854622
C         4.11199672479819   11.78633047274309    0.10500775405292
H         3.72002169882207   12.56502665615296   -0.52930449255352
C         5.36249983828175   11.91720112975866    0.68649765399903
H         5.97433948761816   12.79373878778098    0.51935567674780
N         7.89804737689223   10.07472398865927    3.08382453080595
H         7.45315753182123   10.77224011736430    2.47102590230301
H         8.80855485380285    9.79244027704140    2.72954177086422
N         8.39499217972015    6.11104158238314    4.87744475462380
C         8.33151542378212    7.42784203890054    4.65740820375079
C         9.23473121573577    8.32375515816701    5.22324446044725
H         9.12476399998702    9.38544213017701    5.07135935151630
C        10.23281751175600    7.82172470634030    6.04307011058765
H        10.92557799474502    8.49189153047422    6.52622542861969
C        10.30776933635044    6.45301080000635    6.24494335279557
H        11.07035876645073    6.02865073754467    6.87786315009116
C         9.35936186338214    5.63662515782909    5.64450458352771
H         9.34953390570998    4.56535566552729    5.78817035881740
N         6.74470685944161    7.10595739983243    8.00337574791248
C         6.41232101680081    6.40238829653108    7.03240304621065
N         5.97145370489064    5.70292438407812    6.20016465679534
C         7.76494964862569    7.84697449088763    8.23938207514743
N         8.66052781208647    8.52768834585392    8.50219314815684
N         6.94128711971453    3.22531687585438    5.18402836870564
N         7.79555586366932    2.58625719014720    5.95885441416437
C         7.25260601107310    1.43373403801605    6.29782676885699
N         6.02162857750953    1.32502688885817    5.71057712742375
C         5.86534921073742    2.47765883071540    5.01074369281564
N         7.14437662242422   -0.66020585625687    7.42538744351360
C         7.84658791651144    0.44782406034266    7.17553887326976
C         9.10156963463885    0.68360051599878    7.74062112443510
H         9.61641801858774    1.60000078044374    7.50634819462620
C         9.63169478577641   -0.27438455792717    8.58342453968962
H        10.60026822097925   -0.12813780505670    9.03767901971909
C         8.90052680857452   -1.42734147758392    8.83887040608672
H         9.28127504871802   -2.19790333200349    9.48975388699595
C         7.66159063999782   -1.56697327080002    8.23510755031175
H         7.04798807535298   -2.44259718321931    8.40054991187491
N         5.16306123375359    0.25015686427115    5.78079614376983
H         5.59823770995858   -0.44083500292984    6.40784325616930
H         4.24610816873291    0.53500154469002    6.11576972537275
N         4.67522090887979    4.20594282955063    3.97544376102225
C         4.74417191904641    2.88857402404955    4.19003434767698
C         3.85197201104743    1.98978046566156    3.61153214607961
H         3.96691412557874    0.92810955061576    3.76030509514135
C         2.85892110069486    2.48952990706800    2.78412596787765
H         2.17528002543609    1.81765269839543    2.29050219519335
C         2.77732989226837    3.85887028301507    2.58849653706048
H         2.01819403595084    4.28142089895339    1.95027758180541
C         3.71495221362959    4.67816094766074    3.20169719736705
H         3.71930230888441    5.75020983618345    3.06360570566170
N         6.32211585814869    3.25185321683426    0.82822080767122
C         6.65555725177610    3.93493995237180    1.81346298593716
N         7.09707629649843    4.61772984729144    2.65896632515687
C         5.30521827394722    2.50979507985434    0.58116322590944
N         4.41195724573004    1.83068938567842    0.30684921005643

