59
CSD_code = NECBOM | q = 0 | S = 0 | Stoichiometry = C21H27BN6O2SeW | MND = 6
W        12.15094478567648    0.48272664862514    2.98953583235395
Se       10.08398878737617    1.52648918861270    2.11550398674802
O        12.33395954236242    1.45718894835856    4.35798454009206
O        11.53577332843880   -1.02780475176814    3.44178932700161
N        12.46816651856631   -0.40129503783995    0.85714268769409
N        13.62815919299947   -0.35079872118227    0.15180788122025
N        14.20879063923496   -0.21281515618800    3.03474567984936
N        15.16534013202612   -0.19536955536388    2.07908376299434
N        13.33039348660075    2.10874436244033    1.79556909832689
N        14.38139081241882    1.86599042133233    0.97013578455614
C        10.29170277204886   -1.57927726385356    0.70601794460789
C        11.64412423265772   -1.23020649144777    0.20400726672340
C        12.28214413868733   -1.70716236748971   -0.94340947489272
C        13.53785857700625   -1.12966211439964   -0.94226379215438
C        14.63423981683305   -1.29526247226573   -1.93112310642613
C        13.88581887061323   -0.94544066575719    5.34133680174146
C        14.72454535367795   -0.78746993658210    4.12696532270880
C        16.04787457722672   -1.14671857629663    3.86410747332299
C        16.29077188802834   -0.75531022701015    2.55585319696907
C        17.53829847373568   -0.89611638616219    1.76166903416569
C        12.22801578511568    4.08133868827022    2.81354985189020
C        13.23643021661272    3.43643763930823    1.93629035580187
C        14.23433908908078    4.05360728498551    1.17789991096674
C        14.94105413499527    3.02683958200574    0.58095335626387
C        16.11107063145075    3.11434352533506   -0.33051955814599
C         9.39257909174700    1.87645925606905    3.90794682413783
C         9.58641405867013    0.92032783209990    4.89804768395597
C         9.12386361607425    1.17217606719464    6.17874189128462
C         8.46741661239272    2.35763012804954    6.47073307172745
C         8.25920809601748    3.29316653768665    5.47229397881518
C         8.71668926663654    3.05514244779585    4.18731796677971
B        14.82978231567375    0.42544195101077    0.70207626957842
H        15.75288296228246    0.38019367073622   -0.02586734226216
H         9.99611896075335   -2.55505414318581    0.32816949117752
H        10.31514161538597   -1.59789857963100    1.80234375329925
H         9.55326525810065   -0.84111962991051    0.38685504074272
H        11.87959149391654   -2.38266559989746   -1.66980700274809
H        14.29631013357521   -1.93671010713464   -2.74022240242001
H        14.92929622342987   -0.33223539481739   -2.34321751438288
H        15.50868207425716   -1.74713996754588   -1.46597650802156
H        14.45284398177404   -1.36619654599531    6.16719724628287
H        13.46990846216582    0.03611137323427    5.61382264357966
H        13.02796738792275   -1.58683952716784    5.09878019637730
H        16.73435541068510   -1.62532763783590    4.53185735905250
H        17.36079330910718   -1.49593796251909    0.87099779669400
H        17.90344000417108    0.07883437161396    1.44423418885630
H        18.30133043819407   -1.37886364661236    2.36553188609641
H        12.59547444253122    5.04567677954153    3.15625955004711
H        11.28928114392887    4.23433896802743    2.27838746792696
H        12.03871979482516    3.43100126382964    3.67592709182072
H        14.41331847591968    5.10483483204304    1.08328317540748
H        15.89877411706688    2.62093346884188   -1.27702868188824
H        16.34271177541403    4.15851118959609   -0.52119618885376
H        16.98271428107365    2.63604063651415    0.11294939029434
H        10.10304141126549   -0.01434836532784    4.66596443041770
H         9.28102399594032    0.43744383304566    6.95481742020402
H         8.11676155783533    2.54864839324020    7.47437981855034
H         7.74068528415223    4.21509130363157    5.69211639566240
H         8.55931716366722    3.77493623816880    3.39765044749395

