53
CSD_code = NECDAB | q = 0 | S = 0 | Stoichiometry = C20H24N4O2S2W | MND = 6
W         5.78916117170640    3.48673927869036    5.59889395903016
O         5.08984858258152    2.05961116535135    5.00730220820431
N         4.94565510104599    3.51554671341311    7.49313685647299
C         5.14723793525387    3.53358362202421    8.66552772918795
S         5.46187938942246    3.55740012622560   10.20318471552678
N         7.56605456604888    3.45778577927575    4.53035694162712
C         8.75449000042867    3.44039702740742    4.58304537102258
S        10.31931182964608    3.41650695166374    4.70418410828760
N         7.28421934252948    2.19412651615622    6.94315567204584
C         8.21811570286164    2.74878124236660    7.73926441573760
C         9.08730679605767    1.97022872864558    8.48974304814288
H         9.82562025704039    2.44683727783766    9.11167527407262
C         9.01364386427324    0.57837803070857    8.44432637372060
C         8.03744541194685    0.03280578497509    7.61417405892207
H         7.91112673187684   -1.03179127665993    7.51926645618151
C         7.20540989569643    0.86877779866994    6.88915558988916
H         6.43395559429902    0.48144722401559    6.22986405777934
C         9.96839232369324   -0.25637560397288    9.27294092519948
C        11.40485530255891    0.05663202124894    8.82885527940793
H        12.10484997777223   -0.55613371093794    9.39129474419937
H        11.65869898948263    1.09988723721655    8.99391220410028
H        11.52971378967650   -0.16073552802010    7.77057947549129
C         9.78209395500172    0.10616975694985   10.75367817382759
H        10.43432456832252   -0.51007439700655   11.36736450234432
H         8.75347791916787   -0.06988552612266   11.05994399454381
H        10.02131340844253    1.14800068553818   10.94679371812750
C         9.72308257364317   -1.75750708351835    9.10609268653957
H        10.42843305099520   -2.30791722103682    9.72412340269324
H         9.87110132634763   -2.06763190843998    8.07461635743876
H         8.71910390590063   -2.02867066956468    9.42335545273325
O         5.11596552330131    4.91369448148545    4.97730433881448
N         7.30622051952954    4.77950826028902    6.91802985860276
C         8.22148109069025    4.22477098529180    7.73544066292953
C         9.07687601085665    5.00326995967562    8.50166117393308
H         9.79619658611536    4.52654395703146    9.14538136868156
C         9.01034365095706    6.39518259682814    8.44793309713938
C         8.05530962422822    6.94086081189942    7.59358365075733
H         7.93580899675152    8.00550948738470    7.49075640288922
C         7.23457168743424    6.10490591155664    6.85578173975694
H         6.47819676667383    6.49228633188366    6.17927241404792
C         9.94895756280529    7.22984193383372    9.29487550546971
C        11.39471917675138    6.90379498388918    8.89212857820471
H        12.08339743512769    7.51694616032082    9.46796141982779
H        11.63740653272558    5.86050815164134    9.07303528716391
H        11.54940089734297    7.11138909527340    7.83579499315032
C         9.72021395330699    6.87987576635695   10.77269133577731
H        10.36095560328770    7.49532725718155   11.39916616790384
H         8.68526296612519    7.06641378226753   11.04997758105172
H         9.94521108593759    5.83748733422840   10.97948287873197
C         9.71898406647911    8.73128203819797    9.10984463175625
H        10.41341524443840    9.28167989634937    9.74013502455947
H         9.89397745717550    9.03161425519154    8.07965973810131
H         8.70980429826204    9.01248651879794    9.40069439822318

