53
CSD_code = NECHAF | q = 0 | S = 0 | Stoichiometry = C18H28Cl2N4W | MND = 6
W        14.68908223241638   -3.78603998415325   11.31319020485427
Cl       13.24587026560096   -2.90639108172126   13.04615942156164
Cl       15.67255278993626   -5.41148450336626    9.81305275811120
N        14.62594640944324   -5.61127774700642   12.73290208099170
C        14.54233320452967   -6.87645195137234   12.31579437226265
H        14.23732647654407   -7.03375719204224   11.28665572878596
C        14.84962694316641   -7.95962959308758   13.12344515106487
H        14.77812155498909   -8.96013440535092   12.72715345077022
C        15.24995901755490   -7.73128181681649   14.42908086408105
H        15.50438114333116   -8.55167007757083   15.08317277748879
C        15.31175277722097   -6.41882007487461   14.87462917940989
H        15.60748999706531   -6.18720369818627   15.88547985583078
C        14.99509901107247   -5.39680050229663   13.99783845829300
H        15.03252672733948   -4.36001565423779   14.31381870706266
N        12.72314200894584   -4.85328307315749   10.60549178239081
C        11.64789808633556   -5.00024289588942   11.38423528208573
H        11.80393632705214   -4.91413136385032   12.45423612484556
C        10.37599263521547   -5.22434567617220   10.88244611820808
H         9.54243831702079   -5.31845034633246   11.56033236573125
C        10.20130416468993   -5.32085868445929    9.51217989060160
H         9.22307238899737   -5.48780521806582    9.08690249954581
C        11.32134395399505   -5.20461415628403    8.70111091914909
H        11.24372276286016   -5.28735517082457    7.62850307280741
C        12.55310215151255   -4.97200367709740    9.28581284971643
H        13.44814693903683   -4.88245140939811    8.68004671978171
N        14.28865390346934   -2.52199125110427   10.11931994000413
C        13.98084903154406   -1.39795051153498    9.33250329166837
C        13.58632331514205   -1.83136954261744    7.90522143675464
H        14.38299676729022   -2.43710818877317    7.47739642446285
H        13.42718625171490   -0.95789073508880    7.27758603280797
H        12.67131843786124   -2.41997639552969    7.92917614643696
C        12.79622054522161   -0.67021239133535   10.00215032842250
H        11.92430449774876   -1.32242459482448   10.02433841634205
H        12.54939689029627    0.23986184283933    9.46096596359457
H        13.06281924556285   -0.42209089329301   11.02840442635398
C        15.19333218226555   -0.44742777239191    9.25704791500388
H        15.48844661532003   -0.16372840426224   10.26477304270693
H        14.94967730496131    0.44647973436066    8.68770953969378
H        16.02647865421400   -0.96018788688669    8.78138907170312
N        16.24047315162564   -3.34462762313303   12.07784539785811
C        17.48025460967667   -2.76555090354443   12.39386398831384
C        18.27825248242083   -2.63059209299624   11.08040083330560
H        18.46338436037571   -3.61994683152665   10.66573678755496
H        19.22651527521309   -2.12685031242653   11.25137500499188
H        17.68166780328971   -2.06615363789583   10.36587427638193
C        17.23460019833836   -1.37032007914297   13.00206020889894
H        16.63356356219862   -0.78459950117586   12.30935736791008
H        18.17654384214263   -0.86171229543606   13.19170969929690
H        16.68287232602768   -1.46593034457791   13.93525107696519
C        18.26985951752375   -3.63866705963456   13.39186813199472
H        17.73485450493032   -3.70667758215103   14.33710326104784
H        19.25313856455857   -3.21194600830180   13.57399087395009
H        18.38814787318015   -4.64210878399972   12.98691048017573

