92
CSD_code = NECJIO | q = 0 | S = 0 | Stoichiometry = C29H52N6Si4Ti | MND = 8
H         5.78551711682110   11.89107146910015    1.55935214139393
H         6.01907836925656   10.84210086051364   -1.68483064658093
H         6.98555888000547    9.55337721755134   -1.36376415792921
H         1.33666061867364   10.41593114512665    0.40790065433951
H         2.99410036602876    7.63178098982136    1.97398164741963
H         3.08461189168565    6.74146129508358    0.60359878610883
Ti        3.25299127456434   11.55893932851219    1.75877457582113
Si        5.41841659103071    9.85643937398445    0.39998315186076
Si        6.61919414814244    7.04141282405099    0.96902224916760
Si        3.27048129208167    9.05867161765330    0.11182152684899
Si        1.70876993958904    7.46407125094444   -2.02824216198328
N         5.03548569443215   11.24711041550052    1.32032712086934
N         6.43973302078101   10.29228230625454   -0.94970837046213
N         6.45172555887377    8.73728347600035    1.33011379799953
N         2.33179450102931   10.39793084217653    0.62043529552509
N         2.78387873850519    7.62177256553449    0.98812006329837
N         2.94614395062848    8.60373018505312   -1.56729530599701
C         3.03289760701831   13.30962466384556    0.65330652420102
H         3.62003476283622   14.13123798208096    1.08458221521175
H         1.98473909658761   13.63662937679232    0.60850667520000
H         3.38015710558378   13.18258287493627   -0.37975842171326
C         3.23349477695920   10.54938448187334    3.85429580069945
C         3.84487762941548   11.82211662607271    3.98787386202233
C         2.86957618675628   12.81065282453464    3.68799301039116
C         1.65495530255829   12.13996992543163    3.36231095325787
C         1.88002182386790   10.74360871985200    3.47311045474440
C         3.90197481972221    9.23752496910951    4.15226830300362
H         3.16611505678116    8.43553344528167    4.20175205993479
H         4.41786249546523    9.28561958508338    5.11327720572531
H         4.64427883102231    8.99753774543972    3.38603409444721
C         5.23251180842449   12.06160972013331    4.51466592935880
H         5.63447562862254   13.01013750984736    4.15725497638012
H         5.90872220387224   11.26368039587649    4.20749078251753
H         5.22209768423591   12.09553547879840    5.60791960092708
C         3.03592119014540   14.28831696081736    3.90878687382808
H         4.05972317224417   14.60321721247123    3.70628647817837
H         2.80925002866265   14.53823741262045    4.94872097734837
H         2.36669495568124   14.86621249258777    3.27303810686171
C         0.32293509812340   12.78750669848158    3.09526219165007
H        -0.32854994810684   12.69167072410503    3.96783188741140
H        -0.18007800700360   12.32342850735770    2.24377738300812
H         0.44166089547590   13.84892940828799    2.88528809551362
C         0.83852900419609    9.66335072001779    3.35726639564751
H         1.08044889174679    8.96031788703312    2.55720407568059
H        -0.13913193799183   10.09619919311151    3.15295820202579
H         0.76838401231138    9.10714323897955    4.29513343341255
C         7.25640408582754    9.29546713269701    2.32032773276922
C         7.93588045879606   10.49160757087328    2.09407983457631
H         7.87174048872464   10.94174959609443    1.11700684416153
C         8.70261956467927   11.06934829178829    3.08760989640297
H         9.22100078314470   11.99719553286389    2.88999710389488
C         8.82278305134682   10.46362053470548    4.32772259289537
H         9.42195456274029   10.91677094606198    5.10333757250127
C         8.17289614889518    9.26240356733521    4.55558045549251
H         8.26537298465287    8.77174985942531    5.51449472390094
C         7.39926715757252    8.68524045716092    3.56657393467556
H         6.89183028621848    7.75231646129034    3.75652321838004
C         5.59725673764904    5.90976184738396    2.14064386748550
H         6.24664446947659    5.36460094617506    2.82022778146597
H         5.03310100960928    5.17056027508655    1.57992621032475
H         4.89179828417218    6.46932086377098    2.74688477840781
C         8.46363498906391    6.57479181438833    1.13017586779102
H         8.82894345919366    6.73943013961787    2.13851835577059
H         9.07833135884389    7.17333955787187    0.46473868906296
H         8.62955960876001    5.53047532774884    0.88475297358882
C         6.07489955339983    6.70851982904979   -0.82316259024945
H         5.09154007474592    7.11312471824517   -1.03107435738055
H         6.04647027064084    5.64039003125818   -1.01559432018885
H         6.76652314673184    7.14455567427655   -1.53622415522603
C         3.58895473414923    9.34834805917312   -2.55203864947523
C         3.63918150144991   10.74011328284021   -2.47379169558789
H         3.15783702946766   11.23034942413274   -1.63755073547295
C         4.28598116867937   11.47654649055387   -3.44962510077134
H         4.30951977336972   12.55486375672101   -3.37591687912564
C         4.89548017018244   10.84405637924327   -4.52125481058542
H         5.39655871562663   11.42146268442483   -5.28369916751389
C         4.85430958331683    9.46186707528614   -4.60365109163979
H         5.33123180152903    8.95702660456891   -5.43179445467012
C         4.21166539198259    8.72185462979469   -3.63034452953000
H         4.19275385677921    7.64447289583307   -3.68775690193424
C         0.17744845356220    7.70468230110238   -0.92441440956995
H        -0.28373264858983    8.67225169589420   -1.09605828103286
H         0.45396839333886    7.64634397764596    0.12098132951114
H        -0.57103704431384    6.94354139086355   -1.12005612258138
C         1.17633821202834    7.80597414319532   -3.82810988778010
H         1.12829013137235    8.87156989926342   -4.02738876730204
H         0.19357640648964    7.38740886597898   -4.02005057282014
H         1.86004955472908    7.37228136340797   -4.54880846801444
C         2.32618971466333    5.65676373436007   -1.88955628063276
H         2.21212816818047    5.27282953571602   -0.88103724180903
H         3.37187165653065    5.55777381447742   -2.16432409563349
H         1.75336061323520    5.00839307653674   -2.54564869110765

