64
CSD_code = NECJIR | q = 0 | S = 0 | Stoichiometry = C33H28N2Pt | MND = 4
C        12.04127235351399   14.97880299896318    1.78184650206465
C         9.41188146330654   14.54155557597092    1.29017646036233
C         8.86010316685946   12.88432607889379   -1.31369924010988
H         8.22439820009340   13.33638725238192   -0.56351080657271
C         8.32789746515400   12.23033757940760   -2.40711040705182
H         7.25907433318999   12.16251078119842   -2.52883006554197
C         9.19408412696028   11.66993701606053   -3.33842140453669
H         8.81565814877268   11.15623929517938   -4.20881305918979
C        10.55438882466969   11.78367967361833   -3.12870895261277
H        11.24498780107194   11.36039477731592   -3.83983332650572
C        11.02534416948730   12.45320045923607   -1.99934341624686
C        12.44265448465755   12.62223633956652   -1.68876538190922
C        13.47292391343805   12.06134815292936   -2.44582429596945
H        13.25039190646749   11.45978529728194   -3.31322200035728
C        14.78834293467943   12.26614722963921   -2.07818352586449
C        15.04338096039814   13.04735800677893   -0.93946134794701
C        13.97466372419806   13.56379877647784   -0.23623381193899
H        14.12587094688582   14.16693005398593    0.64965475776372
C        15.95099546975588   11.68082216067431   -2.82905757280165
H        15.86694114949485   10.59089362959308   -2.85371519415875
H        15.92758776780386   12.02903053302188   -3.86643565726769
C        17.25948623620153   12.11055262445212   -2.17071078965177
H        18.12518361352881   11.71959084989128   -2.70597627881956
C        17.18912592751466   13.62308475675990   -1.90557190274759
H        16.61532966689846   14.21655980457511   -2.61592364120861
H        18.15982381162475   14.08531012999548   -1.75643446342209
C        16.47411347321181   13.26459892090982   -0.58693463759319
H        16.61041508952830   13.90019499596775    0.28581706876488
C        17.21437156130241   11.89723893118538   -0.63594021642887
C        16.49933419392945   10.67207888842660   -0.08154633980227
H        15.47240185909996   10.58943781587218   -0.42442911003781
H        16.48327262243394   10.71972179280652    1.00556196244752
H        17.03313987498644    9.77010984599261   -0.37571434983832
C        18.59948695322844   11.96864539010088   -0.00178176639343
H        19.15186306489148   11.05577987951279   -0.21672690903201
H        18.50950652165626   12.06629674303986    1.07822695991645
H        19.17819959109825   12.80930095976042   -0.37166171960522
C        12.74472183018904   15.55650486313185    2.58654216449893
C        13.54362254567087   16.23459757433263    3.53891120281878
C        14.93727022876912   16.20707060281207    3.45259163021810
H        15.40942594015517   15.66115742765157    2.64682233096187
C        15.70737868529172   16.87174150356700    4.38674890363133
H        16.78595411559752   16.84567622606007    4.31262214776429
C        15.10270400500886   17.57208330897271    5.41823997187797
H        15.70795811263773   18.09105370840405    6.14756671515796
C        13.71975634264058   17.60525149782370    5.51110006081120
H        13.24776893690634   18.15206599118868    6.31528650282236
C        12.94240867264037   16.94356416981104    4.58155390416498
H        11.86442545410446   16.96440785912807    4.64498690901185
C         8.33097746457324   14.81219625494557    1.77462007684000
C         7.07561372677460   15.12363515975606    2.35013341541626
C         6.92939718762353   15.16608983368088    3.73855317010554
H         7.78896496336475   14.96597708038209    4.36140128832242
C         5.70212671407012   15.45862965413002    4.29941250163360
H         5.59628192648009   15.48980211734879    5.37484273470022
C         4.60572427623841   15.71462798392958    3.49050543450383
H         3.64704159330685   15.94427336370753    3.93300454372303
C         4.74313261327895   15.67703596257958    2.11208192025126
H         3.88942119029880   15.87813445153209    1.47959003926653
C         5.96624396000523   15.38247981799608    1.54213191745514
H         6.07613262600145   15.35682837514006    0.46653142460985
N        10.17121370012478   13.00055936217866   -1.10790394694603
N        12.70634179714683   13.36114443453829   -0.59257783848436
Pt       11.06499401719906   14.00438741733637    0.39663875491872

