48
CSD_code = NECLOX | q = 0 | S = 0 | Stoichiometry = C17H27MoO2P | MND = 9
Mo        7.04595686841282    0.92718751707200    1.99557125250677
P         5.53808463721399    1.87408669635804    3.69459037316477
O         5.05784424963920   -1.37966470688918    1.55502759822080
O         8.81250400559244   -0.41883012520512    4.11112169188027
C         5.75002836213427   -0.49334654058391    1.80435685775101
C         8.04596375689183    0.07310387761022    3.40848899796608
C         5.64218743260159    3.71960612282942    3.49953299083662
C         6.97584418923400    4.13940499395640    2.87916885716057
C         7.33814220043560    3.17443134534887    1.79352468310476
C         8.60177299986019    2.61719352068237    1.54154049087706
C         8.49148505591124    1.79404977792780    0.40452473018341
C         7.16371674207057    1.89923624534462   -0.10067019954843
C         6.44783064317730    2.75213517222597    0.74915205060646
C         3.65758602568122    1.63525469431530    3.52038071080312
C         3.34334109882046    1.69367367987525    2.02234791843423
C         2.77532414249319    2.68034567885378    4.21082306320911
C         3.30043321301230    0.24361257035229    4.04366819958558
C         5.99733033101560    1.61778167153904    5.52225803299190
C         5.08892837571244    2.27948135571175    6.55989005616874
C         6.06472206211732    0.11238430788935    5.80808663979374
C         7.38949504277020    2.24359429957187    5.66799256524644
H         7.77683023321012   -0.36138999984107    1.39503496945891
H         5.45900091455576    4.23023383923674    4.44865506639847
H         4.83982819891656    3.99775395673893    2.81090998438130
H         7.77116516836323    4.15994814674394    3.62841170309875
H         6.88295482633519    5.15440433892657    2.46983094953759
H         9.51476353437253    2.83326137462066    2.08277664752893
H         9.31513588337216    1.31004428125766   -0.10376019138753
H         6.82542341512893    1.50645697080876   -1.05063018163507
H         5.48592003955385    3.19555382854542    0.52674795282906
H         2.30608579213191    1.40688229098686    1.85476235782588
H         3.97703573461235    1.01214435657623    1.45878058705753
H         3.46906298753701    2.70059576117111    1.62798140111338
H         1.73431644894699    2.44631780957063    3.98808875955969
H         2.96728711941645    3.68684651000146    3.84805983660403
H         2.88729864481279    2.67652866684811    5.28807380341387
H         2.31798840377997   -0.05137503761428    3.67754816967986
H         3.26683681298066    0.22944163505032    5.12953524932874
H         4.02415909596771   -0.49637587240116    3.70592272622840
H         5.57835480509255    2.22113320768223    7.53205399693305
H         4.13431912838327    1.76869136983407    6.64782235613818
H         4.91138363605451    3.33087746029417    6.34339715469960
H         6.82595331707927   -0.09559828898538    6.55774030962961
H         6.31457413988590   -0.45294732998576    4.90857129646846
H         5.11748728392850   -0.26084512129204    6.18775125159750
H         7.85446145823591    1.90833746074216    6.59375979485378
H         7.32532325981432    3.32945218336972    5.70598686652768
H         8.03952828273947    1.95330404633931    4.84390962122676

