56
CSD_code = NECMAK | q = 0 | S = 0 | Stoichiometry = C21H31MoO2P | MND = 9
Mo        4.17641520884526    3.44245416158277    5.75803944167565
P         3.32195931415309    5.54560280737073    4.94767750887405
O         4.36306025561374    2.78767237600870    2.75196147619698
O         7.00828118610759    4.58997440662416    6.05923557257487
C         4.29791584534251    3.07814444863200    3.86394933475330
C         5.92687031349634    4.24633832819969    5.86756597314566
C         1.97168539406940    6.10712890021938    6.08732295827906
C         2.18778861327170    5.49511584393045    7.47340843423622
C         2.64995360580905    4.07747570459750    7.32386009571289
C         3.67337310026043    3.43974987578279    8.04622121936678
C         3.75032719404699    2.10638197124451    7.60173684737098
C         2.71493851343273    1.89102035438732    6.64460590378589
C         2.03065939662229    3.10180119705615    6.47395685377694
C         2.46960352514973    5.55508470012238    3.28943081591292
C         1.42535755183383    4.43986649221397    3.20832323869383
C         0.90144478483324    4.30919551455878    1.78118329698091
C         0.27261034610804    5.62321580573447    1.32935445622055
C         1.28641396822472    6.75694964236905    1.43673452052731
C         1.83159176835347    6.87803080448049    2.86016386469402
C         4.38549851286694    7.06300542260528    4.84410171767544
C         5.47105369017008    6.84127926379211    3.79049054606813
C         6.46085974356833    8.00278482655762    3.75549696051814
C         7.07196563719154    8.22359909394627    5.13391241262057
C         5.97075910893376    8.53396226529152    6.14052736750619
C         4.97788414433898    7.37710015301445    6.21773496931655
H         5.25904983630272    2.27775177620120    5.59475828606837
H         1.92229269677237    7.19980464783926    6.12472692195135
H         1.02818147786372    5.74144275511711    5.67199155929796
H         2.94105236158656    6.06083598732950    8.02937884255815
H         1.25250811386656    5.53353457096045    8.04686114066882
H         4.25276000972214    3.87669876142795    8.85061219085146
H         4.36116436731055    1.32941954371121    8.04380588696749
H         2.42349544215250    0.92716717065230    6.24852228962754
H         1.07911196459727    3.22286776326294    5.97179024853000
H         3.27383398386318    5.30330425425210    2.58249961307949
H         1.86730593213249    3.49230239389992    3.52608003912333
H         0.58142415477270    4.66679897448530    3.86587138950716
H         1.72773940965221    4.04797678743080    1.11729502816360
H         0.16445255973865    3.50506206137482    1.73077808091843
H        -0.07838438173276    5.53601258893365    0.29953321155673
H        -0.59252540359182    5.84807601206045    1.95848893443198
H         2.11561647151255    6.56387522742415    0.75226286655722
H         0.82293035367317    7.70135378459308    1.14261757153238
H         1.01502428711283    7.13496840773533    3.53941795747326
H         2.56005943129090    7.68936620958776    2.88168792955740
H         3.75159856001706    7.90870004916495    4.54532662519686
H         6.00389944347105    5.91123894401228    4.01399920048826
H         5.01163447961090    6.72937999714006    2.80505102716552
H         7.24432880419914    7.78986817479305    3.02629543799541
H         5.94482239398915    8.91323326594186    3.43746118864099
H         7.60252112969118    7.32153323126578    5.44317002001699
H         7.78915464547854    9.04589889179263    5.09867069753080
H         6.40208267741925    8.70880808036142    7.12812576792006
H         5.44782014224800    9.44541152274254    5.83717978763772
H         4.17698130630489    7.64028398155494    6.91340378853410
H         5.48639262662506    6.49318982286670    6.60634068390382

