49
CSD_code = NECQIW | q = 1 | S = 0 | Stoichiometry = C16H22CoN4O4S2(1+) | MND = 6
Co       -1.51119342673253    8.98634382702687    3.64122276456399
S        -1.47679293693996    7.88183563789020    1.80482033165922
O        -2.59094430293674    6.99524840114402    1.66540735897944
O        -0.15427720773547    7.31431791716963    1.66685558363582
C        -1.68268171613365    9.19596037847429    0.51230619061287
C        -2.64369351036241   10.13849524593404    1.18271092182441
N        -2.12014900026422   10.54020241535587    2.49895635040422
C        -1.02407207554289   11.51807903710903    2.39725830981211
C         0.30632920502581   10.80871924166514    2.40058421702167
C         1.40890335442235   11.28503889638248    1.70704160753577
C         2.59662963193549   10.57297670999614    1.76805399042130
C         2.63979485237552    9.41467914689903    2.52795355715004
C         1.49521921426084    9.01160850610449    3.19331727156872
N         0.35699169720884    9.69492725656487    3.13669982418621
S        -3.50106923924793    8.40393164727103    4.17468701560014
O        -3.82901253885010    7.01168142139552    4.17509375009179
O        -4.36112165582084    9.33255434427440    3.46761638358071
C        -3.61120963756825    8.92742247442226    5.96581286373052
C        -2.84309053203112   10.21793291884954    6.09396146544874
N        -1.49332981791624   10.08229105899061    5.52572209796751
C        -0.59354818217564    9.26498157509023    6.35182745097777
C        -0.69844383292771    7.80494366472410    5.99645298214843
C        -0.43821737855406    6.81853667774953    6.93536111221363
C        -0.53349077740063    5.48705947136998    6.56298743291323
C        -0.89429470176453    5.19318430395170    5.25855472377054
C        -1.14086555145249    6.23153482206991    4.37635028684433
N        -1.02696790484529    7.50934305818340    4.73122441009126
H        -2.92006962718418   10.95239188119193    2.98339054467160
H        -1.09172558171512   11.01620859072949    5.47493044521605
H        -2.09682585474799    8.71520516018134   -0.36755286828532
H        -0.70330968243770    9.61589446818760    0.30376076870805
H        -3.58735234671270    9.61337260298856    1.35575971206996
H        -2.84082861057054   11.02376969526655    0.56504897601666
H        -1.05593979436557   12.19227301700354    3.25944335376203
H        -1.12116113470723   12.13199162817535    1.49535247240151
H         1.33524263948848   12.18981546800495    1.12437795489993
H         3.46620651456024   10.91349762992117    1.22819671638739
H         3.54039095015022    8.82793068409611    2.59836245387408
H         1.48834236240457    8.10957198149751    3.78592837738526
H        -3.20774895716615    8.11210272202089    6.55687251399185
H        -4.66953608302014    9.05195132827819    6.17054564826304
H        -2.78929700229409   10.53311864265236    7.14605121527373
H        -3.37295620392685   10.99092209059185    5.53189506262792
H        -0.79523068160384    9.40403030561785    7.42138133546263
H         0.43617629000022    9.58337663358431    6.15770898517294
H        -0.17284325394872    7.09432407357390    7.94396018225821
H        -0.34207235219590    4.70286311060247    7.27841926331865
H        -0.99768006974484    4.17528315619727    4.92192630005733
H        -1.44858354828901    6.01857507357631    3.36510033171307

