78
CSD_code = NECROC | q = 0 | S = 0 | Stoichiometry = C34H40N2OTi | MND = 5
Ti       -4.26877948308542    5.70202871525230    7.46051931677231
O        -6.45908416194537    6.74633088424590    7.16003403829280
N        -3.94498385019015    7.42025781607952    6.72427484896984
N        -5.33389200476484    4.36688081873206    6.66590497253359
C        -4.60474539220056    5.81469896411900    9.56526405735037
H        -4.79424907008167    4.77093936274475    9.84596568564033
H        -3.67142616957911    6.15106468334868   10.04083625273123
C        -2.28244665482533    4.97790542347964    7.53750696782079
H        -1.77566540661599    5.13272281747396    6.57284179901277
H        -1.79279887556526    5.61776680972757    8.28765786992933
C        -4.90994180266642    8.44370154573490    6.37668260600347
H        -5.06284392420929    8.52080816309508    5.28198899491016
H        -4.56070205951066    9.43722903113993    6.70894328424834
C        -6.24845488446453    8.14099651433942    7.06757616475057
H        -6.22711124474978    8.49294433691249    8.10317526907173
H        -7.08404966899456    8.62357773368797    6.54004868748314
C        -6.67004411777344    4.62908295644086    6.17013261347779
H        -7.44056049318826    4.29222902666964    6.89068613598375
H        -6.86321914016010    4.09689581713737    5.22137470501221
C        -6.85339104691856    6.12845592363860    5.94975880284332
H        -6.22156297632695    6.46194283659560    5.11178565598158
H        -7.90485451849122    6.37328022875101    5.72605244166361
C        -5.71857269005818    6.66584251576785    9.97957001292863
C        -5.51307469708809    7.96608093288326   10.46680723488786
H        -4.50207235204762    8.33906794507385   10.57480572471181
C        -6.57026653941566    8.77733872619991   10.83245813272052
H        -6.37612571371317    9.77387864953778   11.20522659920903
C        -7.87370864900789    8.31860489840422   10.73482079581016
H        -8.69979941248540    8.95187575833730   11.02252641967362
C        -8.10109474560273    7.02735726632897   10.28222978796809
H        -9.11319555349910    6.65095307668500   10.22297659414229
C        -7.04700102025954    6.21539548836967    9.91989776958574
H        -7.24746958128730    5.20572272793119    9.58278396659383
C        -2.18282370174508    3.56803654171245    7.93980411146611
C        -1.85751572635587    2.56494403861614    7.01887216722859
H        -1.65279800685730    2.83893993894388    5.99224172921596
C        -1.76832922600098    1.24049251505252    7.39690387958508
H        -1.50969476218028    0.49062193068190    6.66297803368797
C        -1.99528222846096    0.86931348275788    8.71134972305681
H        -1.92806158394921   -0.16723645682002    9.00670471791813
C        -2.28543076422202    1.84814886420355    9.64774113194735
H        -2.43522844077329    1.57388919830470   10.68359621348374
C        -2.36671202632608    3.17452087035987    9.27262391514908
H        -2.55152193524297    3.92913246417275   10.02840312549615
C        -2.64200148110194    7.75609852770907    6.28845892158946
C        -1.70826296950827    8.27988956129883    7.20001472842420
C        -0.42738058138746    8.59952325365630    6.77407198026759
H         0.28015303789427    8.99536892466740    7.48924293103596
C        -0.05319026120578    8.42962416532358    5.45465285040290
H         0.94698878759644    8.68019269712964    5.13421286663503
C        -0.97509681526886    7.94502999434107    4.54613982023077
H        -0.69545381707481    7.82033454824017    3.50911639468341
C        -2.26371631135024    7.61506872520526    4.94043435157153
C        -4.99313803298185    3.00302516182746    6.47946382436128
C        -4.40053860851308    2.60104980378342    5.26866349030264
C        -4.16619075716084    1.25895617539210    5.02168082486477
H        -3.71581080482473    0.96333018782894    4.08413033616660
C        -4.49859493620121    0.29848819726708    5.95943698548981
H        -4.31562942035097   -0.74636031792955    5.75726376393019
C        -5.05959784220126    0.68856806138858    7.15818198314196
H        -5.31356357484662   -0.05307812478900    7.90221438173088
C        -5.32204476070856    2.02516580833582    7.42835800578319
C        -2.09326337161726    8.52410809563380    8.63082817243822
H        -3.11090801029391    8.17083495268199    8.80174743584977
H        -2.04118893553531    9.59044931827603    8.85395519684680
H        -1.40935582807241    8.01135327553575    9.30779902058696
C        -3.23332131038751    7.10717767954173    3.91003071130992
H        -2.72590124346901    6.46170285486703    3.19477677624632
H        -3.66644031461393    7.94071495844582    3.35361682544391
H        -4.03820278597737    6.54663130262373    4.39054400687116
C        -3.99624148649077    3.63832160159216    4.26217651879851
H        -3.36126213399296    3.20017236839533    3.49501673405491
H        -3.45047766225787    4.43614355718335    4.77402893141832
H        -4.86968327730295    4.07385056101710    3.77303306582418
C        -5.95640393243412    2.38482808424839    8.73931231250781
H        -6.20066231615245    3.44471095191420    8.76350651378717
H        -5.26758452717061    2.16052411122760    9.55444165215690
H        -6.86374741214932    1.80183919327806    8.89631472829524

