46
CSD_code = NECSUL | q = 0 | S = 0 | Stoichiometry = C17H23CoO5 | MND = 8
Co        3.35920359898430    7.34616737783711    2.34852044597942
O         4.10745431894316    4.04148276094485    3.39589060757034
O         5.48835867896493    4.25790484959985    1.64054429703176
O         1.33571818981906    6.25328596834458   -0.18073743239698
O        -0.08017868468783    6.01045787605362    1.54758520997777
O         3.37340942337718    8.61604980923578   -0.24905070273292
C         3.23888875122922    7.17716196062640    4.45305338690563
C         4.62315834721740    7.34938530697053    4.12937034253837
C         4.74791502143426    8.54188332228216    3.38628169661131
C         3.42956405476580    9.15482343141701    3.30924981185529
C         2.51293394385018    8.32410529875475    4.01053871828762
C         2.72454740285434    6.12528819952236    5.38199066846969
H         3.09288800565483    5.14255856409179    5.09431055075245
H         1.63772077404482    6.10658015137195    5.39392726093798
H         3.07653678123738    6.33530061969587    6.39351985713957
C         5.73246530586595    6.50567630558249    4.66697756050101
H         6.61727837278535    6.56560628099453    4.03678856960336
H         5.42133151562749    5.46670206840366    4.74735578737944
H         5.99951882255731    6.85425868864915    5.66673822740198
C         6.02752676530052    9.21967737864108    3.00549661547968
H         6.35150306172385    9.86954570063426    3.82097099666622
H         5.90291604416113    9.83068160315512    2.11482507377271
H         6.81371248547954    8.49315160669838    2.81579537090177
C         3.17739500917184   10.56038828001629    2.85643972860490
H         2.14602162023118   10.69732023636678    2.54103576530925
H         3.82817274548444   10.83458521516245    2.02979742871066
H         3.37547497955956   11.24316642607643    3.68491407563149
C         1.10018455443987    8.66104999680012    4.37617863126492
H         1.06585716261215    9.03004961106088    5.40319667376559
H         0.45474996937806    7.78821114019206    4.30586503672984
H         0.70169117754967    9.43268093749819    3.72260019263799
C         2.18925635466944    5.75665863799960    1.99966532092706
C         3.51859479314115    5.48491587268387    1.57052310815877
C         4.36445059781981    4.54799074660064    2.32488597712697
C         6.36843629301668    3.32530498166357    2.24556069902365
H         6.84187394542442    3.76245592027390    3.12780982858524
H         7.11817566496199    3.08295863064239    1.49671106798684
H         5.82329752306090    2.42843808454020    2.54811476469040
C         1.15111241832775    6.03931727025733    0.99612810564538
C        -1.15694636829369    6.27626350280465    0.66317468097185
H        -1.03749953596396    7.26121105556664    0.20665094609048
H        -2.06232483779257    6.23831451901960    1.26365708969369
H        -1.19111860105569    5.52672667591520   -0.13026807304254
C         3.35839495049211    8.07250567881215    0.75569040152333
H         3.72475643140170    5.48109139708807    0.50256380370825
H         1.82262217116777    5.28166005345301    2.90476182562225

