88
CSD_code = NECSUK | q = 0 | S = 0 | Stoichiometry = C35H48FeN4 | MND = 4
Fe        1.63007961918302   14.07937224210634    7.05006882029072
N         2.13534886386310   12.65436102377293    8.11417955034481
N         3.28590529707590   13.66753239531362    6.22211171456519
N         1.55200308203422   15.30894445168958    5.66773431198221
N        -0.73550878674161   13.45705627436901    7.23384631699438
H        -0.60381939020229   12.55191415759695    7.68117656784262
C         3.98314648311656   11.19285417246333    8.71315230626226
H         3.50638650435436   10.83031648963929    9.60694419831477
H         4.97023247769488   10.82509363019343    8.50330032924212
C         3.38765512904143   12.09896305860610    7.90788674181137
C         4.04338461632969   12.68600371928975    6.73193176343712
C         5.27412210545348   12.38885507532338    6.16418282813253
H         5.88887041616036   11.59352623189237    6.55442285743611
C         5.69844742775433   13.13745965603778    5.07277659061869
H         6.64545107196774   12.91379020770299    4.60404137971293
C         4.91939989428582   14.18372372910051    4.59174690145687
H         5.25664554170550   14.78066995482291    3.75943140474684
C         3.69911302222524   14.43240882490196    5.20245494118180
C         2.71935830293204   15.49617579751711    4.94126238592774
C         3.00565348888430   16.58307532942580    4.19244399788749
H         3.95717673842350   16.68669966863719    3.70442540829017
H         2.31393289394686   17.40142912318447    4.09639059155584
C         1.35499978192556   12.11054451336696    9.14267246243038
C         1.21760324373640   12.81981260114722   10.35044304254276
C         0.45251134338845   12.27473874373826   11.36845704712055
H         0.35777046406377   12.79382990970500   12.30969091674667
C        -0.18818210522838   11.05968280342757   11.20274736687208
H        -0.76922259832922   10.64069661804555   12.01121309861949
C        -0.08995535147465   10.38665895097303    9.99979880619488
H        -0.60477930115322    9.44549189765609    9.87777533249807
C         0.66564878986465   10.89788638143929    8.95507483922272
C         1.94280106624018   14.13658549400285   10.51930523947729
H         2.07114757059802   14.57288776405379    9.50985421313657
C         1.18199305401367   15.14262342150178   11.38120602455156
H         1.66880536022821   16.11412701475950   11.32520157870678
H         1.17370593164148   14.83826082969479   12.42525817513292
H         0.15377955081945   15.25178703231525   11.04322143694175
C         3.33485934408405   13.88861666261554   11.10832049271286
H         3.24981014859905   13.42444839841529   12.08943093247943
H         3.90896538817199   13.22952828389306   10.46228452168241
H         3.87511598620586   14.82715254740022   11.21419285460019
C         0.73872657213937   10.17207669503100    7.62887441883059
H         1.15515771486764   10.87039173361824    6.89060185123274
C         1.66282563823906    8.95496466536589    7.72202225946582
H         1.69156970624908    8.43158468647971    6.76848106141978
H         2.67321319849677    9.26467430893125    7.97751718472944
H         1.30648961325306    8.26580956546953    8.48520744998653
C        -0.64273247525165    9.72434826415896    7.14072412233055
H        -1.36583638604337   10.53534043952636    7.18589220376091
H        -1.02016396303291    8.89913551070927    7.73984006675445
H        -0.57566265159152    9.38403416168285    6.10945702216422
C         0.47202340194258   16.14442530190344    5.35714454750464
C        -0.21709852241559   16.02177958624102    4.13423370774060
C        -1.27074856833779   16.88538568587476    3.87084217995867
H        -1.79502924806576   16.81522301782931    2.92981005136169
C        -1.66015003777460   17.84168318600216    4.78802982738951
H        -2.47707052831943   18.51082942046695    4.56035115085163
C        -1.00197728240676   17.93977712673306    6.00131032917589
H        -1.31842269763897   18.69084277840748    6.70813063173847
C         0.05694446724227   17.10105561087558    6.30552910339936
C         0.16221908809476   14.96802630724689    3.11465601073729
H         0.81318286984735   14.24043202326093    3.61295713494731
C         0.92269288074753   15.58479696045677    1.93614945274256
H         1.14296395184519   14.81971852851740    1.19425755116122
H         1.85983462515833   16.02301512426765    2.26932051568387
H         0.32331716353096   16.36134452579476    1.46509446393354
C        -1.05789038915250   14.22311934382824    2.56090750547947
H        -1.71979189792884   13.88800319220823    3.35358656083974
H        -1.62640265525802   14.85752648031950    1.88510931155370
H        -0.72734365171042   13.35227967500089    1.99821971593527
C         0.81687549817608   17.22766521858719    7.61013883039266
H         1.15097082293715   16.21079114188066    7.89880203696629
C         2.06424640829642   18.09239635598230    7.39709827742379
H         2.62359223908300   18.18607273457367    8.32585077864828
H         1.77699712964364   19.08833910337389    7.06399185062928
H         2.71287923318402   17.65029067325981    6.64596685961349
C        -0.01366317472489   17.80048581566441    8.75674705114789
H         0.53455472467782   17.70133342235279    9.69064242251735
H        -0.96135282572277   17.27783058934868    8.85938305644659
H        -0.21313898902245   18.85865308526822    8.60226403397974
C        -1.43640738552526   14.31740111041312    8.17523648966987
H        -1.55217347269862   15.30299827106500    7.72689967339274
H        -0.84582141601775   14.40071082018675    9.08440120664480
H        -2.43281989773309   13.93105839506240    8.43265063710656
C        -1.51326949250790   13.26580420532580    6.02067192225046
H        -2.50615302955439   12.83628086300272    6.22008165168078
H        -0.96785529673373   12.60793533164134    5.34849377856391
H        -1.64586347932228   14.23484387506301    5.54266176041473

