57
CSD_code = NECSOF | q = 0 | S = 0 | Stoichiometry = C19H32CoO4P | MND = 8
Co        3.03618879713779    7.62340617001816    1.34127828879349
O         1.75873421236225    4.35900903098993    1.91382668238994
O         1.20330176773763    4.68565528476256   -0.23804292601101
O         5.78046052938759    6.83828360991837   -0.08618053212325
O         6.41630368899575    6.16220895176586    1.96160920520274
P         3.64820296994779    8.54205037272917   -0.64865828256869
C         1.43609698405117    8.93792299671455    2.03402682523261
C         2.76543729956685    9.42525083759061    2.37359198725891
C         3.37690445087350    8.48005855841029    3.22962768921021
C         2.47580799336348    7.37559099735334    3.34902239123210
C         1.25811974462974    7.69823004318979    2.66066758883662
C         0.32736926539576    9.74812715291432    1.43360992785767
H        -0.17619544006754    9.20904945146894    0.63309700392918
H         0.68758833868287   10.69503296928074    1.04323602844739
H        -0.41349001409834    9.96218324064199    2.20636279275846
C         3.21102544157152   10.84719841114054    2.21198999798957
H         2.72173100646272   11.45929389798235    2.97307267208885
H         2.95135317798510   11.25580918477468    1.23853528096532
H         4.28582213190795   10.93948100926253    2.34828875139321
C         4.64672607679872    8.64895903996849    4.00720398669262
H         5.28078190732584    9.41267573693976    3.56330926599790
H         5.21131341593741    7.71943639473004    4.04296909263889
H         4.41541295749348    8.94885937470689    5.03144317122320
C         2.59488568928348    6.25316961091580    4.32658189958158
H         1.96296552343171    6.46968668194848    5.19022054245504
H         3.61815777132539    6.13231511905550    4.67273737203499
H         2.25181144205612    5.31948506192051    3.88597257481724
C        -0.01378089705863    6.92338565016371    2.76831324340632
H        -0.52817343853663    7.19140425955336    3.69379009978086
H         0.19012086305624    5.85549382807342    2.79753197797281
H        -0.67642351409660    7.13887308147405    1.93295903998763
C         4.16167075904903    5.98338595708692    1.44571315998127
C         3.09028861870416    5.79760049736898    0.52259679536890
C         1.98582974870509    4.89929205578468    0.85109582700191
C         0.09664154952357    3.82423435106394   -0.04401841563988
H         0.42262574032597    2.87482604381529    0.38752115209980
H        -0.34453129317131    3.66563557684086   -1.02517767464151
H        -0.63183156607316    4.28223989075180    0.62963542111001
C         5.48240154033779    6.37205373549182    1.00256561602674
C         7.73365786725994    6.56891289061864    1.64163331036957
H         8.07043439859836    6.08801443199435    0.72035963502252
H         8.35930764360769    6.26789806360526    2.47844890138818
H         7.77492032125385    7.65271445158691    1.50617196288072
C         3.86241229864295    7.59691969904614   -2.21059557952159
H         4.08655252503683    8.29585268125838   -3.01550338727067
H         2.93891923271461    7.06862892859746   -2.44142944289188
H         4.67864433135741    6.89012832923912   -2.10950484316520
C         5.11088755079612    9.64894628496827   -0.71941419264369
H         6.00357421874110    9.03850909423527   -0.63340366090731
H         5.07903912516872   10.35854560681229    0.10254060055825
H         5.12134229585996   10.18699135941071   -1.66619413498577
C         2.37345798575092    9.70266126305245   -1.31077454732217
H         2.22268458224262   10.54008714163152   -0.63880074553817
H         1.43259689264289    9.16851505957064   -1.41676643178388
H         2.68109965327867   10.08217340337012   -2.28427983838363
H         3.31331120098277    5.80980236206150   -0.53778443037376
H         4.13960263489176    5.44344483417227    2.38447130320618

