37
CSD_code = NECTOE | q = 0 | S = 0 | Stoichiometry = C6H14N8NiO8 | MND = 6
Ni       -0.42237531307654   12.01871680158828    1.46881251705031
N        -0.54417741143830    9.79364064317244    1.53931246208748
C         0.49448749832597    9.05809460091502    1.98536606708857
O         1.51825674991406    9.54535902839822    2.44412530822725
N         0.38340240741810    7.67318623545156    1.91906459129289
H         1.17075218595104    7.13316468297337    2.25500438949301
C        -0.70855479722530    6.98036403078090    1.45582764343023
O        -0.78039992846308    5.78122769112988    1.41812486091509
N        -1.71366353762386    7.82320398469696    1.03898679675710
H        -2.55993030010268    7.40256721754120    0.67671076299609
C        -1.65094293453374    9.20580815359266    1.06164858790067
O        -2.61671328142380    9.84727802251451    0.64239321494629
N         0.39465842352081   12.01991529451432    3.12246883222682
H         0.97909537175431   11.17656722435349    3.18657887452030
H         0.99525142460363   12.85207382980681    3.17548613753735
N         1.66486134477984   11.99737733622115    0.56822027349747
H         1.69094463311376   11.98950481505083   -0.44418718845706
H         2.14044611773938   11.17272393833894    0.92266800552818
O        -2.55469005499597   12.02311033625994    2.45899316353414
H        -2.91429980645338   12.79996654988556    2.00098354877435
O        -1.30839052539930   12.02255061810663   -0.24348750118200
H        -1.90425303590389   11.24227432911918   -0.17032193187056
N        -0.52246887049698   14.24125397359478    1.52987383309623
C         0.53273505093370   14.96729566641478    1.95217783361488
O         1.55708320511558   14.47041997726829    2.39891641088462
N         0.43838014232962   16.35274077564437    1.87379522072754
H         1.23943896026437   16.88576647020485    2.18799047758500
C        -0.65373437654889   17.05497977028875    1.42534502946019
O        -0.71104591094986   18.25456382632815    1.37706803923061
N        -1.67784277668911   16.22141609036953    1.03693237345793
H        -2.52507179560464   16.64983705642666    0.68636206573528
C        -1.62977167002129   14.83833568702409    1.06496094650852
O        -2.60749644974998   14.20476309627296    0.66222943782700
H        -0.28898705878422   12.03203317098847    3.87671525612875
H         2.14747731974650   12.82337684572344    0.91011654252928
H        -2.92332873953387   11.25260994097272    1.99817147169906
H        -1.90343226050402   12.80243228807485   -0.16903435477122

