74
CSD_code = NECVID | q = 0 | S = 0 | Stoichiometry = C24H40N2O5Si2W | MND = 6
Si        7.89238371552891   -2.11724218111858    2.73477101682704
Si        6.94497515000645   -1.24666650161900    4.78865507713850
H         7.71484091551900    0.04178294339445    4.65404376300519
W         4.58703599829734   -1.07399446541564    5.73354587115282
N         8.61814633029020   -0.93711365767532    7.19981449464891
N         7.91011461184018   -2.95724157307892    7.00032905221744
O         1.74147344363651   -0.70930379385585    6.98281282007610
O         3.25650303087957   -0.22050011125640    3.01659609392484
O         3.67749811568475   -4.06876061210205    5.51646911248953
O         5.56073507049420   -1.70411740137750    8.64975723221821
O         5.14671501258432    1.94807838913800    6.38626428200175
C         7.98877262344324   -1.77908344382692    6.35647590644397
C         8.47589102044787   -2.86106513748576    8.25209974252932
C         8.92554146709501   -1.58237170655874    8.37914016724557
C         8.88716110693800    0.45082404548611    6.94788844260648
H         9.41301809437699    0.56302669424383    6.00106316114238
H         9.50165104017076    0.85420980455145    7.74789374168964
H         7.95214542445239    1.01098279311465    6.89671314599180
C         7.22789002880690   -4.12992625149999    6.54047324541434
H         6.98823755708151   -4.01768280591126    5.48964714611274
H         6.30082707009771   -4.26968816422437    7.10286922522061
H         7.85564984780475   -5.01120587041519    6.67942696037619
C         8.50239615718631   -4.00563810078174    9.19518148978811
H         8.99122211944476   -3.71881738324463   10.12090224569696
H         9.04074083967419   -4.85090836380279    8.76660707593780
H         7.48763208109801   -4.32858405610868    9.42553640528334
C         9.60755648117820   -0.92018924017358    9.52038314313467
H         9.73223764617183   -1.62958591053969   10.33281163313696
H         9.01747279868504   -0.08132462451762    9.88807240559270
H        10.59308809896674   -0.55469862410619    9.23159562125315
C         9.74214120140350   -2.76862060652365    3.01384254093322
C        10.56507875706954   -2.85644870156167    1.72682264651179
H        10.71182145822741   -1.87734646524546    1.28238598109159
H        10.08817306961635   -3.49990275808297    0.99414648808502
H        11.55109284285441   -3.27002940980640    1.94393132642394
C         9.75226863668792   -4.15428667023457    3.66145700407128
H         9.33770957505870   -4.90862909594227    3.00092470194253
H         9.19246759017672   -4.15017293274073    4.59191096634706
H        10.77751056057513   -4.44879604447916    3.89012591816233
C        10.47349470784249   -1.84144512679357    3.98724760207379
H        11.48842532084777   -2.20323168622727    4.15553730084983
H         9.95920968933260   -1.81738971208687    4.94445747851878
H        10.53882434477612   -0.82930821630301    3.60833979261401
C         6.74965494574991   -3.53293011343722    1.98053041762354
C         7.39814388976620   -4.28320083412603    0.81547131732130
H         6.68495005167456   -4.98658754256578    0.38357304655413
H         8.26034142892273   -4.85472534451492    1.14749986273630
H         7.71548111299723   -3.60690137792456    0.02878058470279
C         6.37421350354657   -4.56442833470010    3.04638348615737
H         5.76641055808280   -4.09961040679811    3.81828443614968
H         7.24448382665851   -5.02921714578493    3.49639903845637
H         5.77582981149589   -5.35731898641852    2.59648722005417
C         5.42007518817908   -2.95580842136370    1.49284849197679
H         4.75072445590665   -3.76596769660814    1.20049486730732
H         5.54899348520682   -2.31567935872264    0.62671301126503
H         4.93009924559439   -2.39048356156252    2.28339147233395
C         8.04918857769849   -0.88578568674313    0.05928411187492
H         7.19660713701562   -1.44546492023144   -0.31258716768125
H         8.94989574230513   -1.46518911925138   -0.12133453329184
H         8.11855908532326    0.03062341534056   -0.52823177309279
C         7.88756938154198   -0.53955906260117    1.54337567347489
C         6.57597334075447    0.23630970523039    1.70233075515489
H         6.46282946701597    0.61948201826635    2.71252326565610
H         5.70814627067474   -0.36939528262872    1.47393454444793
H         6.57124105156927    1.08846845280825    1.02183662689641
C         9.00425055326566    0.44442452583760    1.90159280311986
H         8.89446869123748    1.35473940329509    1.31132587969905
H         9.98702229490185    0.03610544896262    1.68808533167348
H         8.95539857825545    0.72266154309025    2.95009586420775
C         4.08161085958982   -2.99148105634172    5.50768462345368
C         3.80872536013191   -0.57123685532709    3.95775240134092
C         2.77482475040572   -0.84275949536451    6.50673256294881
C         5.23982384660536   -1.49176557493236    7.56204735855773
C         4.96439285559084    0.85109440191058    6.09892495101893

