52
CSD_code = NECVUO | q = -1 | S = 0 | Stoichiometry = C6H26B18CoO(1-) | MND = 10
Co        2.65193906028898    3.88594033217237    3.81606147326247
C         2.33198340014983    2.01497061902390    4.59424601708575
H         3.28047796048744    1.48530126592968    4.57214524310312
O         1.90263483938148    0.03193618749093    0.04797241283549
H         2.47718865005300    0.69849809210924   -0.34547019685698
B         0.64090646177720    3.46739543268833    3.23845385206353
H         0.39425175841205    3.96454867945313    2.18306587329188
C         2.87491365496510    5.72253388549557    2.95295003259334
H         1.87467105224692    6.09966645696021    2.76652364728169
C         1.53420832035431    2.08532296432488    3.25658053649807
B         4.49798526260605    3.62660138737455    2.79146989079500
H         4.64467097750355    2.50202204318018    2.43718776147904
B         4.67354292682787    4.25076824227301    4.38643754034895
H         5.03927055081603    3.61046587322735    5.31436629330938
C         1.20905108617471    0.64378936767928    1.12610262740331
H         0.73171560065404   -0.17434897080372    1.66639084781832
H         0.42780659018438    1.30656420742871    0.73031945808383
C         2.16444897708920    1.42940996308162    2.02681106865666
H         2.63857934663666    2.17338078835111    1.38201210643752
H         2.95126289082002    0.73613497904407    2.34343456174786
C         3.40998029587099    4.60606752106584    2.02040075181048
H         2.73404340824798    4.26626728764311    1.23745446278605
B        -0.17418548637601    1.90049789571701    3.54267796060950
H        -0.84912882597733    1.41430881298013    2.70272392820289
B         4.08594673798489    6.85871691264955    3.32267083229864
H         3.76273679429834    7.97998940979420    3.51933744040967
B         3.54867559698940    5.60538626717708    4.48009045072506
H         3.00780440430835    6.07272339299400    5.41607500044033
B         0.98761571898719    0.92792478871525    4.41150011255268
H         1.23253174946843   -0.20731925571541    4.18911887971614
B         2.03071350946270    3.29381182856499    5.64205323133015
H         2.80810959392382    3.57907550892607    6.48053830003636
B        -0.59613472821447    3.27659198325340    4.51753673007474
H        -1.66621404334331    3.78304896132649    4.44057296433329
B         0.85075693732080    4.28141791159000    4.77836468633715
H         0.65345272140843    5.43743311788699    4.95287539157676
B         0.30464726187409    3.15754719051618    6.04512604249946
H        -0.12038373323289    3.55154704253007    7.07854559389527
B         5.28435056495171    5.91683588071981    4.22395706050503
H         5.95015574086862    6.41766851764678    5.06719526428390
B         5.05753032096980    4.83385054801363    1.59923528383300
H         5.41585204844808    4.46792867601944    0.52874282423866
B         5.89766218917171    4.66755385335217    3.12965310563229
H         7.00034273382781    4.23403096288048    3.19486956851376
B         1.30921860309950    1.70252494899831    5.93883902551822
H         1.73197458370146    1.05458016032934    6.83372340339844
B        -0.33445555035109    1.68328117070625    5.28888029764175
H        -1.20775718392788    1.03829647406377    5.76319042036119
B         3.97370444883638    6.20113483549500    1.70670250379500
H         3.51616711452442    6.76965930317210    0.77460142690946
B         5.54159777233046    6.29071168430550    2.49312892786651
H         6.38507933312176    7.02920461017890    2.10805708065786

