94
CSD_code = NECVAT | q = 1 | S = 0 | Stoichiometry = C38H48ClN6Zn(1+) | MND = 5
C        -2.45904926557886    5.69983959885555   14.05741819272470
H        -2.93726591112465    6.41009906215468   13.38972757672426
H        -1.62211147157999    6.19350380487469   14.54463593269200
H        -3.18534423907983    5.41660928643566   14.81597725263965
C        -1.97210922722898    4.45709696970072   13.29606022772016
C        -1.01529410092822    4.89976473793628   12.16115361912328
H        -1.35774651831616    5.85415886132479   11.74136780687583
H        -0.01819659351947    5.06538867847467   12.57403859737486
C         0.08553725413387    4.14785203221181   10.09670479245813
H         1.03407711072568    4.36357605091867   10.59696749113336
H        -0.18042473591048    5.00927152203190    9.47296501292555
C         0.24005195916159    2.89718815430650    9.23338343219380
H        -0.71124383646368    2.66703411114986    8.74536582567127
H         0.99819474349096    3.06328939238873    8.45835083671520
C         0.55707061191822    0.46845025802474    9.47019526372262
H         1.02275143365403    0.52224524540063    8.47705869123650
H        -0.47818552451137    0.14655368280284    9.35060089097741
C         1.33579660313985   -0.55268790539836   10.32587243841976
C         1.42002761991227   -1.86955487466588    9.53684106330585
H         1.95644482684113   -1.71892673639771    8.60257797324921
H         0.42387376507378   -2.23403066647934    9.30536673086892
H         1.93728268517038   -2.63668872722155   10.10700294483192
C         0.60912748930139   -0.84193149845870   11.65110844932152
H        -0.39772272721483   -1.19539472849617   11.41888075893993
H         1.13665579310965   -1.64292797349981   12.18364534504316
C        -0.01897806629010    0.01270638217575   13.84666076951295
H         0.66600770615573   -0.63959949706141   14.40180059665854
H        -0.97672886976643   -0.50253626213993   13.73047624245005
C        -0.22234825714665    1.32076395693798   14.60567547259883
H        -0.60677240458415    1.11859997900604   15.61202485479205
H         0.73985510723640    1.83317653824236   14.69961265727647
C        -1.23182504003965    3.54536738868415   14.30872942708504
H        -0.22220554854339    3.92899082107535   14.46937140299352
H        -1.75854494292455    3.58000487392326   15.27126391684932
C        -3.98722656327199    4.27170305496679   11.79082771768696
H        -4.28069215715850    3.50112895993197   11.06865104350722
H        -3.48688757091873    5.06425306722790   11.24137818595476
C        -5.22213648960872    4.79577413019056   12.48803982317018
C        -6.04641716679888    3.86164452707717   13.14415044352311
C        -5.85369502048019    2.45395307124203   13.05204826728194
H        -5.07977296936984    2.05261805883797   12.41611592531438
C        -6.66274130463625    1.58350197470847   13.71878169755918
H        -6.50408739208866    0.51989892012425   13.61868166542272
C        -7.71790833219023    2.04795792752673   14.52880291952933
H        -8.34024543442767    1.33670790406792   15.05007526689292
C        -7.95424558396469    3.38353036541339   14.62659396269093
H        -8.77267356527619    3.75977697100260   15.22244359026786
C        -7.14351591966932    4.32217812024850   13.93831099669020
C        -7.39680005576961    5.68598844908679   14.02445006428861
H        -8.21281389426486    6.03344470393776   14.64167218019709
C        -6.63484412398516    6.61231677559691   13.32323196259654
C        -6.93968258168655    7.99625831938081   13.39329203329417
H        -7.77668123882102    8.29993854457932   14.00447110137202
C        -6.21143115777703    8.91409773182609   12.70458499326594
H        -6.44952798724339    9.96513016774690   12.75736866201977
C        -5.14049847299824    8.48535055263864   11.89623276886364
H        -4.58142586048394    9.21706535459467   11.33164053838671
C        -4.81266429060157    7.16646756280504   11.81219781287081
H        -4.00330141131285    6.88759749375005   11.15328174636108
C        -5.52910483073488    6.16650015188798   12.52747616500062
C         3.57385846470223   -0.59429994585928   11.48550612455977
H         4.58965289491008   -0.47323209576116   11.09825588354350
H         3.38591657586706   -1.66775124047182   11.55517887597265
C         3.51885722229170    0.07462046383551   12.84172982006523
C         3.58738252930905    1.45040039711531   12.86539968206818
H         3.70241727472925    1.98160001443594   11.93168762720579
C         3.52320167969271    2.17235053521308   14.06297479954210
H         3.59368767351162    3.24971915633688   14.03943745892174
C         3.38569697165176    1.50784579864474   15.24921705776906
H         3.33829434988100    2.04757718481919   16.18353375297420
C         3.32826534545621    0.09929783517749   15.27982688590824
C         3.20293202492743   -0.58797386802684   16.50607520536450
H         3.14781363214669   -0.00838366558424   17.41577360864925
C         3.16619955493449   -1.95221580304021   16.54734503855888
H         3.07723643463455   -2.47134954769638   17.48883870147065
C         3.25724692833749   -2.68776457917918   15.35669454565690
H         3.24124140756124   -3.76613115302288   15.39719131329956
C         3.37408362900300   -2.05211434747774   14.15203140067555
H         3.46040871428530   -2.65099050330766   13.25885644805938
C         3.40636914604791   -0.64159842292254   14.06463497063178
N        -0.92254350024872    3.87890854223894   11.11946529680423
H        -1.83021505321459    3.84200494766463   10.65763534960469
N         0.58136692334930    1.78372877053745   10.11365846694819
H         1.54524119199212    1.89877184791243   10.43601926038763
N         0.49246784323820    0.33502833747719   12.51533573497048
H         1.44273758282652    0.69515025294355   12.63345414590465
N        -1.12964993278059    2.16672706920725   13.83191920700503
H        -2.05873347432529    1.75309397359728   13.89610090111134
N        -3.02903440663643    3.64149491183870   12.71480584391008
H        -3.57545266842402    3.22632404896710   13.46375911355992
N         2.64906281910044    0.06135171201018   10.55706460169679
H         3.09742150484215    0.16294022955526    9.65272979025746
Cl       -2.55685602266270    0.74818455264733   11.01579986596941
Zn       -0.85331131371537    1.84914921054758   11.74867919982532

