61
CSD_code = NECYUP | q = 0 | S = 0 | Stoichiometry = C15H38MoN4Si3 | MND = 5
Mo        0.78584829381741    9.97365715419280    3.79810371692249
Si        2.16320052205681   10.94590524524679    6.03822617759798
Si       -0.40824489519641    7.16881936502915    5.02736211208937
Si        2.01621945884084    9.76258756006998    1.13342577443174
N         1.19232028932740   11.62087568806746    4.76087318256789
N        -0.60245683721512    8.85257722629840    4.67377143397194
N         0.44297434741144    9.73606211506715    1.87360393841889
N        -1.02739605978192   11.29044960231830    3.55240418025326
C         0.45871208202519   12.84064437483229    4.68635441192949
H         1.11025005827627   13.69495060852015    4.44364828107915
H        -0.02833930048068   13.08082532689207    5.64713709009135
C        -0.59945552449017   12.67786171846944    3.57561866015213
H        -1.44402913624396   13.36703954712632    3.72923888773263
H        -0.13264513032336   12.89850648287648    2.61324071506793
C        -0.55527604632885   10.58812714361586    1.26620395275130
H        -1.01048776654853   10.09600078255039    0.39387809186746
H        -0.11294308920329   11.52890160689391    0.90572320947760
C        -1.89661354867707    9.44621476533441    4.92579388656694
H        -2.21781780094524    9.26448499635433    5.96159873817502
H        -2.65981428458546    8.98299105604198    4.28079307030396
C        -1.86085638912089   10.96049283742402    4.70150808126089
H        -2.88121256956876   11.35973520819722    4.58223906293942
H        -1.40404505387605   11.42025680787940    5.58042348428954
C        -1.64285615678554   10.89243472684792    2.29267117408534
H        -2.33726471905456   11.66462141423751    1.92357113716336
H        -2.20305769489557    9.97011115152191    2.46552558377465
C         2.56621119952791    9.44991123697447    4.94622874642912
H         2.55684649925235    8.51206592971402    5.50260957458189
H         3.56863825194444    9.56150257123810    4.52433393022859
C         3.56473903645675   12.16037858400624    6.54011065366125
H         3.16887091155500   13.07325153999229    6.97505364538761
H         4.16312932625882   12.43613351628413    5.67775086098444
H         4.22631849504157   11.70650130468886    7.26970670494115
C         1.11198991415744   10.59686340927339    7.60914947772180
H         0.72242949782200   11.51396147918437    8.04356290178465
H         1.69189333694660   10.09572322492056    8.37641898761070
H         0.27088544441460    9.95766219229193    7.35449849314760
C         0.17837066091643    6.83274480420412    6.81912940318963
H        -0.58508790169988    7.09439375068561    7.54600793958770
H         1.06762010099809    7.40756586606747    7.05434162754492
H         0.41437678636778    5.78252984044321    6.95777366038844
C        -2.06538392919143    6.22860338351968    4.80469281554227
H        -2.81340029298414    6.56685284644973    5.51489223174776
H        -1.92979859755350    5.16318242228669    4.95869572658640
H        -2.47014407841188    6.36554789536091    3.80635606370268
C         0.83185683469083    6.55961374583690    3.71558740244998
H         0.91751588251703    7.31990999342463    2.93507277526595
H         0.51864651971856    5.62781932864013    3.25620449218490
H         1.81552289488050    6.39926568219727    4.14084389098149
C         2.95163254346105   11.37509229391756    1.63196306648004
H         2.65989834450565   12.21809443713773    1.01058360560903
H         4.02646087726857   11.26361109607496    1.53326563337985
H         2.73411908081083   11.62798524911419    2.67315773388165
C         3.07550585210967    8.21708403451217    1.49454993298091
H         2.61299531603063    7.31314105923925    1.11514134795809
H         3.26662880460458    8.08585654056635    2.55314795079663
H         4.03105376129440    8.32822095225364    0.99432755556407
C         1.81750540490298    9.81677612650811   -0.78057603830201
H         1.31642256049102   10.72110919307545   -1.11278550412809
H         1.24018767856904    8.97136474263925   -1.14308822715092
H         2.78552993389124    9.78344521537062   -1.26974709768163

