43
CSD_code = NEDFOT | q = 0 | S = 0 | Stoichiometry = C20H12Cl2O8Zn | MND = 6
Zn        2.49957438798038    0.00052336570714   -0.00007797441449
Cl        5.36144083695488    3.42248450145447    1.96624021123976
O         1.93396666128188   -0.22180876513536    1.99696091903361
O         3.75545152454624    1.22271424967830    0.77002971707676
O         4.36798953893347    3.71242846152542    4.71858892698920
O         4.06058666051138   -1.57953753068771    0.12912019936719
H         3.89445269641011   -2.19161879181525    0.85365275077059
H         4.88160204418503   -1.10968147918761    0.31564751751442
C         2.43694764994162    0.70425933036644    2.64317927199590
C         3.48255972233730    1.52231518603618    1.98591403694979
C         4.11338933070270    2.50329805773436    2.71684480901629
C         3.80214034529118    2.83422238595074    4.09100325523412
C         2.34584428973302    2.29499999473812    6.02864177042445
H         2.86093900944332    3.08680993984895    6.55187929656343
C         1.33856401533770    1.56369129522862    6.64228652064841
H         1.05965863490251    1.78573100824031    7.66138345371649
C         0.69195066403686    0.55246643294898    5.95023409191672
H        -0.09238829467267   -0.01551759507076    6.42726468336476
C         1.05211268619031    0.26909118831818    4.64375931826519
H         0.56086496287682   -0.51285723106128    4.08466117382743
C         2.06302218929076    0.99939400410894    4.02071760307439
C         2.71463408580474    2.02354765995319    4.72009499159603
Cl       -0.36157132630431   -3.42114702596028   -1.96662278923907
O         3.06626186786512    0.22276010920268   -1.99750232980557
O         1.24436583569433   -1.22126968128226   -0.77048518189647
O         0.63342843933535   -3.71276432916357   -4.71819785724785
O         0.94330281203909    1.58439963532531   -0.13216502610750
H         1.11722098361375    2.19842614754276   -0.85326772753185
H         0.12087223747525    1.11994884535911   -0.32567841097425
C         2.56376864937633   -0.70386047194227   -2.64333063651108
C         1.51790002435365   -1.52156105707204   -1.98606507029690
C         0.88723650900505   -2.50276350865746   -2.71686758135150
C         1.19913094207339   -2.83437990392564   -4.09073116776634
C         2.65793646128733   -2.29772032288307   -6.02722204581098
H         2.14306865578666   -3.08976309718014   -6.55032703781404
C         3.66616722628935   -1.56735978250304   -6.64044072960877
H         3.94616388409916   -1.79050031781251   -7.65899682212008
C         4.31243176290572   -0.55576346224562   -5.94861240411785
H         5.09755909668309    0.01143793946468   -6.42527959302922
C         3.95094985260479   -0.27105920951847   -4.64279263104091
H         4.44183997003181    0.51126425024341   -4.08390279649848
C         2.93905207480049   -1.00036852443481   -4.02020185520820
C         2.28781039896384   -2.02491190143677   -4.71933685019441

