30
CSD_code = NEDGIM | q = 0 | S = 0 | Stoichiometry = C12H12Cl3MnN2 | MND = 5
Mn        1.46710888998251    1.29001345541448    2.72534071014109
Cl       -0.62741894082249    1.33411284539381    2.53212421403675
Cl        1.48453387365311    1.05794051862775    4.76588155244984
Cl        3.32552049501297    2.27509413204374    2.60509681522174
N         1.88863366579401   -0.42285694620225    2.04176719086132
C         2.12393449619542   -1.51032563219290    2.80356008683717
H         2.05868720914892   -1.36803215486733    3.87423122737004
C         2.43227757213447   -2.74451683992628    2.28898751550081
H         2.60778993040339   -3.56978520023771    2.96086691025953
C         2.51916281340117   -2.93247851709036    0.90316500409296
C         2.85132155383545   -4.26908746308541    0.32850092451972
H         2.93115567153444   -4.22148603600431   -0.75379954439917
H         2.07979366677703   -4.99159052934883    0.59120066855304
H         3.79372043288944   -4.63062235765417    0.73636473963696
C         2.27871590580550   -1.82535124316008    0.11358937932384
H         2.32955433110437   -1.90782390829476   -0.96031503625027
C         1.96797545754357   -0.59305602946361    0.68740386134487
C         1.69784107280987    0.61657921952586   -0.06085788861072
C         1.71271233979965    0.74431981300327   -1.45199826198625
H         1.94300582715508   -0.10962688924351   -2.06841757930287
C         1.43291497850891    1.96433144503384   -2.03828365565643
C         1.44940279320153    2.15043848022564   -3.51894507310295
H         1.56159095524364    1.20039947706231   -4.03376768731582
H         2.27837346074769    2.79905300627211   -3.80015918115067
H         0.52965274449720    2.62829216863054   -3.85057180010562
C         1.13949608583538    3.03765697294909   -1.18896150836862
H         0.91273380962311    4.00981942869498   -1.59647328759607
C         1.14269550123089    2.84413085384845    0.17353954585113
H         0.92114980535944    3.65509212721371    0.85698862179928
N         1.41436360159492    1.66876580283218    0.73224153604455

