62
CSD_code = NEDHIO | q = 0 | S = 0 | Stoichiometry = C27H25N3O6Pd | MND = 4
Pd       -4.76233462328993   -5.22245038832343   -1.34653822471621
O        -2.81252594925680   -6.10740947828102    2.16017280978312
O        -7.49221519521853   -2.27590596282985   -1.50228358200981
O        -8.40176375206113   -4.56429232181567   -4.99575661712636
O        -9.73536392857473   -2.85087241931073   -5.58199749423100
O        -4.46182416791770   -6.41538445001984   -2.94558384904893
O        -2.58163937050235   -5.33975722795012   -2.56647963554335
N        -3.39705191219053   -6.11149776094360    0.00576965424030
N        -5.10972481898977   -4.22326072523230    0.18129485040832
N        -6.29032042112221   -4.15424539091260   -2.06662031090925
C        -3.24605092798807   -8.52092083522336   -0.33554857451210
C        -2.50284319159116   -9.68178869420334   -0.51333698021631
H        -1.43714442821497   -9.66385337403600   -0.33522954074528
C        -3.11802968284846  -10.85068788920263   -0.92270538546492
H        -2.53092691901748  -11.74639664387920   -1.05975173564873
C        -4.48121256712421  -10.86718137563291   -1.16714039363008
H        -4.96034731487220  -11.77660727380655   -1.49684936707695
C        -5.22552994524058   -9.71339465920081   -0.99343759851587
H        -6.28690153762406   -9.71962808304086   -1.18891268692739
C        -4.61616340092613   -8.54287467059208   -0.57218952356754
H        -5.22812495710736   -7.64231934756909   -0.44748203364854
C        -2.53266964896195   -7.25935578738898    0.10548341059501
H        -1.66087914844200   -7.10219658946066   -0.54196277983782
C        -2.14000829097303   -7.24747544602022    1.61300889176801
H        -2.49017966587895   -8.13979397878967    2.14031317984887
H        -1.06753358612607   -7.12416591382999    1.77389411210691
C        -3.51279182086488   -5.56027123145803    1.15980010974291
C        -4.43610302804284   -4.45047379652844    1.31964463999326
C        -4.68834460417006   -3.70488686470682    2.46609107096310
H        -4.13470170460933   -3.90362662334686    3.36954527971792
C        -5.66084686648899   -2.71553752477226    2.40250034630627
H        -5.87518316525272   -2.11528636029208    3.27308877172136
C        -6.35964084600293   -2.50813698622067    1.21954636340891
H        -7.12681080390431   -1.75610714716646    1.12580108200086
C        -6.05983386246520   -3.29613726771785    0.11451526174046
C        -6.70207596204169   -3.17549049895225   -1.24695132042282
C        -6.59553865508070   -4.01526566098766   -3.48408841119503
H        -6.21021312792617   -4.92309337659347   -3.97473021258660
C        -5.84192036095506   -2.81293873238591   -4.03170350946527
C        -6.39895991088007   -1.89443940002688   -4.90915954324632
H        -7.41848150271311   -1.99208441262080   -5.24366424183826
C        -5.65338004063856   -0.81953765061746   -5.36640720260752
H        -6.10555823526117   -0.11141708697617   -6.04544903058309
C        -4.34465429721979   -0.64743307212332   -4.95586001323132
H        -3.76747425411655    0.19326463545136   -5.31245820068847
C        -3.77889219490828   -1.56170834281061   -4.08229172720114
H        -2.75589994279158   -1.44137996962965   -3.75689279168384
C        -4.51980821046399   -2.63503585959164   -3.62475949875392
H        -4.04838725202945   -3.35036517537245   -2.94031273377123
C        -8.11557110973198   -4.00401357446791   -3.71443027068027
H        -8.58245051908058   -4.65081857175505   -2.96391477168817
H        -8.53645995805192   -2.99975118439333   -3.62870501918846
C        -9.20271792732989   -3.89987101609457   -5.83054934809106
C        -9.32884161782598   -4.64125071294006   -7.13800626140765
H       -10.22581177686607   -4.31845147800952   -7.65735327982888
H        -9.34894317691118   -5.71181180864546   -6.95967044484361
H        -8.46021343980960   -4.40887838796302   -7.75110193868004
C        -3.22977144362385   -6.21287107415695   -3.16360712336487
C        -2.56016971317618   -7.09625914921279   -4.20197319812078
H        -1.51058854464375   -6.83411302893863   -4.29076118847162
H        -3.05735633109448   -6.96088610052996   -5.15902185592599
H        -2.66519444098039   -8.13831881998481   -3.90794038348005

