86
CSD_code = NEDKOW | q = 0 | S = 0 | Stoichiometry = C45H33ClO6Zr | MND = 7
Zr        7.40921140367186    4.27790080248004    3.49801122203532
Cl        7.40686954367133    4.27414297275779    1.07349621314111
O         6.77523646742113    5.74233989184501    4.90170543241166
O         8.59250143801168    5.88428066448939    3.05212706823670
C         7.00544628661049    7.01162254983870    6.87783129471151
C         6.26196015899940    6.09702501464562    7.62251680089640
C         5.82599535625791    6.41351474483136    8.89453101273053
C         6.11066974332825    7.65835255132757    9.43244424842568
C         6.82637704213696    8.58385282628967    8.68952843304169
C         7.27621980180123    8.26513337442479    7.42102674106308
C         7.48422038522024    6.59083373471521    5.53193404098531
C         8.69404495957080    7.10610336965826    5.05237942582287
C         9.20647217311877    6.69189559331624    3.81227345172670
C        10.52651566950133    7.17543636834532    3.33889367354832
C        11.20765349705771    6.36511585076364    2.42874266595196
C        12.44273372001932    6.74672062037472    1.94249212214879
C        13.00702987239976    7.94572202323297    2.34941977478114
C        12.32988569668966    8.76244669278305    3.24083087668112
C        11.09642814629718    8.38209224898035    3.73749477683443
H         6.04442768841515    5.13190644777403    7.18889364862114
H         5.26369490664910    5.68850618528228    9.46448068397817
H         5.77041918204301    7.91049543895512   10.42594857789843
H         7.03479211382808    9.56001877739522    9.10233792770432
H         7.81729348393240    8.99935126210156    6.84421927139211
H         9.27439936458806    7.76349569032981    5.67680013442442
H        10.74123290607541    5.43823384662540    2.11648289449260
H        12.96556312511561    6.11324609813591    1.24146904812354
H        13.97088883884036    8.24803155829375    1.96701162258565
H        12.76462818589979    9.70284401307082    3.54657288153293
H        10.56771567496502    9.03756495140362    4.41248047310139
O         6.45747776144899    2.99622529970107    4.90109450886359
C         5.36806400781852    3.18585924289626    5.53119851198350
C         5.24305497232673    2.56126343384844    6.87734439642978
C         6.40690077508437    2.37483507356132    7.62203715322356
C         6.35089598966976    1.83911803154912    8.89410606490108
C         5.13054497297187    1.46327492650838    9.43214910955147
C         3.97114454731407    1.62025388863874    8.68929406645898
C         4.02214244918528    2.16903694302323    7.42070635950912
H         3.11571173208223    2.27019591025523    6.84389031502371
H         3.02159346208215    1.31261944906558    9.10219970694530
H         5.08236316873163    1.04285831425439   10.42578938575615
H         7.25994684448138    1.71498148675352    9.46411257169049
H         7.35144940540203    2.66896285221606    7.18831339902251
C         4.31709295879525    3.97612556575132    5.05153272204493
C         4.41989716859917    4.62725001763279    3.81152041475067
O         5.42642931206317    4.49933554837144    3.05136742405287
O         8.99431891104635    4.09441701314085    4.90185543429688
C         9.37424476183926    3.05603357204245    5.53200643573520
C         9.97865756380587    3.26016126982259    6.87767453663690
C         9.55845488455147    4.36127857794359    7.62250124347613
C        10.05063734105513    4.58046739100240    8.89448091325861
C        10.98634614485245    3.71143825510422    9.43225398837889
C        11.42984891482838    2.62887157951075    8.68924394915470
C        10.92890428783987    2.39884497857503    7.42070533579629
H        11.29419382660713    1.56320621258258    6.84379093299422
H        12.17123190355955    1.96036814236700    9.10185982600210
H        11.37500898615037    3.88002621332402   10.42569131347719
H         9.70383869397040    5.42981315550812    9.46459542130650
H         8.83121892517681    5.03218470076578    7.18908167728469
C         9.21601800199314    1.75080484628059    5.05184890120506
C         8.60142787178579    1.51432636584060    3.81147032321473
O         8.20851125043873    2.44990410586938    3.05144491456320
C         8.36002747510850    0.12921039692400    3.33840855742952
C         7.31745623794737   -0.05577229862261    2.42855193053979
C         7.03035264060202   -1.31627056773074    1.94252019466144
C         7.78678878228028   -2.40434267201549    2.34934527321727
C         8.83291313441417   -2.22607548195200    3.24047370886998
C         9.12017759116808   -0.96761238085793    3.73703331675729
H         9.95229208017929   -0.83736214714727    4.41190650725081
H         9.43024400193532   -3.07267792294229    3.54601078509486
H         7.56697803793422   -3.39020660637498    1.96676864526922
H         6.22062560969177   -1.45235863645090    1.24129751492669
H         6.74779623840886    0.81150122236520    2.11633927588052
H         9.49525351451762    0.91937898311427    5.67608761827393
C         3.34061803113045    5.52809798122173    3.33801539476868
C         3.70143766280404    6.52342728792189    2.42799427947170
C         2.75318770918450    7.40218739316998    1.94204674300961
C         1.43272154589802    7.29096610156712    2.34900895286756
C         1.06431980767373    6.29599469452096    3.24038806405450
C         2.01072469306769    5.41810100169056    3.73685519925223
H         1.70769393740801    4.63253873932564    4.41202001831600
H         0.03250928124530    6.20183916633544    3.54602315304106
H         0.68867444665288    7.97402457450564    1.96634295683675
H         3.03998634318026    8.17140748996618    1.24066832018860
H         4.73734808300172    6.58340545533448    2.11580266367270
H         3.45747448488062    4.14992969797186    5.67585323034240

