108
CSD_code = NEDKEM | q = 1 | S = 0 | Stoichiometry = C52H49MoO2P4(1+) | MND = 6
Mo        4.69989081863290    2.94105320648750    0.18496631847073
P         3.45347559358509    0.87332033036637   -0.16584010077322
P         3.59472310121910    3.49201379483760   -1.91521921753186
P         5.44520685958244    2.61342571578943    2.47079025396629
P         5.84783257091538    5.03469003969791    0.52623858874633
O         6.16439168526598    2.40704885511498   -0.31770946065074
O         3.09485355130289    3.54627133507078    0.78970952095616
H         2.37838532458514    3.82471008944015    1.35947132669049
C         2.34081077900801    1.05456672733227   -1.65064292683646
H         2.91501178925550    0.65197467956362   -2.49612508213190
H         1.43818803406919    0.44619387799448   -1.52997903510085
C         4.28672868676694   -0.67492643608775   -0.59854539390592
C         3.66105362106244   -1.91251760041531   -0.47543159422499
H         2.65977207460836   -1.97621246516752   -0.07278758245125
C         4.32911872965175   -3.06004685544787   -0.86098767315750
H         3.84632136610103   -4.02044764921487   -0.76038044082207
C         5.61301676873498   -2.98002722653481   -1.37746523533247
H         6.12959044481084   -3.88013638651405   -1.67442573360532
C         6.23149298845424   -1.74787568958165   -1.51488511375915
H         7.22943358797228   -1.68600928765411   -1.92256242263695
C         5.57013877490196   -0.59609102680248   -1.12798919951543
H         6.04113394929223    0.37467753309561   -1.22096975920163
C         2.33909037487874    0.38654525649230    1.17941937684940
C         1.03606646656058    0.86395034171290    1.28439734223288
H         0.61174246299378    1.47092232789184    0.49593579057608
C         0.27329688979638    0.56023614531280    2.39998561242365
H        -0.74018017394169    0.92690399202446    2.47208692887994
C         0.80544900761940   -0.21134353737894    3.41960141342239
H         0.20686900210670   -0.44724340917643    4.28604366949567
C         2.10758445183347   -0.68014079823283    3.32656514345003
H         2.52663958821891   -1.27944058846512    4.12049732263818
C         2.87343119337550   -0.37846940429213    2.21701716782215
H         3.89195306133800   -0.73622584520403    2.13974961520486
C         2.01428987756003    2.51817449616445   -1.92307327787988
H         1.36845646467842    2.93234569353504   -1.14116622429008
H         1.50647970946822    2.63594720437982   -2.88622581230974
C         4.35694544394815    2.95841807741405   -3.46999197477543
C         5.66474156486026    2.48634756146480   -3.42828696854216
H         6.18970227913233    2.47396856969861   -2.48011835036835
C         6.28254288154696    2.05284107755532   -4.58846047860207
H         7.29837222765833    1.68909499345785   -4.55367472573432
C         5.59857843161334    2.08918644129731   -5.79259392384858
H         6.07905979953530    1.75143839876580   -6.69822715294173
C         4.29616557734008    2.56356102032242   -5.83934068626491
H         3.76631047295787    2.59629223561029   -6.77961771894154
C         3.67374626135205    2.99891668911266   -4.68433441494688
H         2.66319255566829    3.38261325113215   -4.72789281496076
C         2.98292083899809    5.17392400106534   -2.24965400761305
C         2.10316123535787    5.75394553804149   -1.33826245892960
H         1.75279019828341    5.17888052319991   -0.49138759841407
C         1.67986923457084    7.05859812583101   -1.50322044471343
H         0.98947344492924    7.49414952738717   -0.79655038921745
C         2.14368887786182    7.80794873356493   -2.57192709792948
H         1.81597724428956    8.82809193988334   -2.69919221776051
C         3.02859518130196    7.24483756959820   -3.47569370214724
H         3.39339270557055    7.82584978210473   -4.30930980789302
C         3.44882348451336    5.93623644405396   -3.31830785807067
H         4.13471794713850    5.50365982413221   -4.03363163312529
C         7.00328579259548    3.60310165111174    2.57573760833104
H         7.45791889143959    3.53120766460207    3.56960106241978
H         7.68162332246230    3.13817180676224    1.84799502456645
C         4.42989723216497    3.20093909744950    3.85722040344482
C         3.08966030634583    2.81849640948926    3.83342550333751
H         2.73749175070817    2.19578897321673    3.02120638226955
C         2.22731873124261    3.20673970664000    4.84191797754729
H         1.19319539859738    2.89626665610214    4.81509980480183
C         2.69511681985900    3.98894774211869    5.88588144881366
H         2.02574131856035    4.29642016496942    6.67450838927991
C         4.02668228291924    4.36991379161902    5.91952526142290
H         4.39446142197738    4.97170167926562    6.73702114416297
C         4.89443949387679    3.97854050960420    4.91430753365825
H         5.93184427040476    4.27264198569580    4.97095170808552
C         6.00236585057220    0.97333646912710    3.00072437839852
C         6.67106257010199    0.21915046842312    2.03902934815094
H         6.85418332906633    0.65988462248783    1.06602692623074
C         7.07316957377032   -1.07076572187512    2.32658896970755
H         7.58642688081199   -1.65664883400245    1.57887772022055
C         6.80464002406824   -1.61434137024131    3.57442152412496
H         7.11104545411276   -2.62463856664443    3.79909315463661
C         6.14091114039831   -0.86546841086051    4.53249674416377
H         5.93519873715690   -1.29149958362381    5.50309210428663
C         5.73491858145546    0.42803181003626    4.25136215874536
H         5.20836488336359    1.00784288628121    4.99625712311417
C         6.69634965890908    5.04327410264432    2.17360730895182
H         7.59364091802568    5.67001929883456    2.14461020934801
H         5.99420430268814    5.49480917481093    2.88534616740064
C         7.17212476748458    5.17377359525816   -0.69793046544526
C         6.75106477877638    5.29369755635154   -2.02144883237874
H         5.68782965273055    5.36173976996959   -2.22373889780186
C         7.66720450476570    5.32213716690216   -3.05366451883657
H         7.32919122315050    5.41702569478876   -4.07513791687048
C         9.02137347832637    5.21447062194854   -2.77417660342065
H         9.74208673389032    5.22851291037161   -3.57740741293106
C         9.44653249045635    5.07935835989417   -1.46398764029397
H        10.50003985917616    4.98502294225953   -1.24626689128213
C         8.52992542200348    5.05725168588682   -0.42495738107392
H         8.88827357103458    4.94061393450936    0.58716745235469
C         4.99886312424206    6.63450622438845    0.53737506075904
C         3.91998343431780    6.73741634053829    1.41419910153714
H         3.67562834331073    5.89501382324792    2.05535389818821
C         3.17603808548531    7.89922319125334    1.47029838662819
H         2.34721063125809    7.98009168267679    2.15832866095465
C         3.49532271451065    8.96223400788571    0.63895482328216
H         2.91412769038283    9.87073057613404    0.67964282511610
C         4.55882517512828    8.85987827557726   -0.24148007329770
H         4.80687791865688    9.68899696219416   -0.88671242601660
C         5.31294467440799    7.70039839417411   -0.29617082290654
H         6.14766542414782    7.62642433885419   -0.97826109591018

