66
CSD_code = NEDMEO | q = 0 | S = 0 | Stoichiometry = C30H30Cl2OP2Pd | MND = 4
Pd        1.74589517222227    2.59732280422829    8.89123655498252
Cl        0.25319568228731    4.14628744209094    9.67760245474810
Cl        2.88250995033914    3.97292591953628    7.47283185822328
P         2.79929403134375    0.84090523876912    8.02287355223055
P         0.59197797726069    1.44907089414292   10.37362856695033
O         0.98525090500384   -0.13359777788947   10.42947732559237
C         2.37622940876115   -0.45079241100069   10.47404330378969
C         2.91902656030304   -0.72572634053091    9.06432058890018
C         4.35412360317895   -1.24775090490016    9.14178831379589
C         4.44053376768920   -2.49475486386054   10.01596601636126
C         3.95202940371829   -2.17682208115077   11.42413255208310
C         2.51418807361149   -1.67573467258623   11.37544686751571
C        -1.19505694877476    1.26484924121418   10.24995493124183
C        -2.06289467648126    2.06262908822314   10.98455850103095
C        -3.42711995770199    1.94672176095157   10.78632926393774
C        -3.92237208735774    1.05283750936821    9.85049670356358
C        -3.05391823401951    0.27509942719048    9.10070591095877
C        -1.68951093938456    0.38427420425314    9.29331714233897
C         1.03266070620845    2.01701512490301   12.04445189157995
C         2.10320596725562    2.89843224997951   12.16209907729590
C         2.52986532242101    3.29714603362313   13.41618513584563
C         1.89493372483455    2.80978373648988   14.54811359572559
C         0.84088078705352    1.91702005167446   14.43105562666999
C         0.41039228891584    1.51284771728536   13.17983540581788
C         1.73954693223965    0.30099375562037    6.64778382205839
C         0.68006206114978    1.13471441217471    6.28950217757000
C        -0.17970531229297    0.76294684643312    5.27077583329275
C         0.01256370556081   -0.43649404916130    4.60422350482943
C         1.06266467392655   -1.26914646057597    4.95788077997741
C         1.92274418452257   -0.90751831310781    5.97899090052120
C         4.46149331976207    1.11696374427988    7.35495285722417
C         4.89121356519611    0.71999039063928    6.09690438137715
C         6.17170520711884    1.04356342553502    5.68047876277868
C         7.01644276456158    1.76201206672452    6.50881062632990
C         6.58152065068941    2.17641500071247    7.75878035391521
C         5.30511138471046    1.86110718518376    8.17788591457299
H         2.93754631363144    0.39539190707384   10.91044903541188
H         2.26883581522886   -1.48031900406221    8.60645488561690
H         4.71722227631080   -1.46902941315097    8.13562513368426
H         4.99899446076529   -0.47136382379713    9.56138997942457
H         3.82579367020993   -3.28906177503637    9.58720844048807
H         5.47278643927464   -2.84705246527484   10.04720311843831
H         4.00710494238450   -3.06601316441146   12.05355552076198
H         4.59091075381601   -1.40998355656580   11.86709536415802
H         2.16136837347824   -1.41251839509043   12.37429353185953
H         1.85803884143184   -2.45597180702480   10.98387113776091
H        -1.66524402367481    2.77827857235072   11.68924488857046
H        -4.10628372203353    2.56282042678578   11.35674965175959
H        -4.98821459904410    0.97037270551828    9.69603287563336
H        -3.44132357059521   -0.40841793576017    8.35919702071537
H        -0.99683958044512   -0.20513235998970    8.70660729891356
H         2.58615048918842    3.28979129882053   11.25524563730076
H         3.35310966029849    3.98916650725016   13.51367263493728
H         2.22372052610382    3.12655348851357   15.52690339731582
H         0.35378546767813    1.53721053686359   15.31734657636613
H        -0.40544228048669    0.81080180178939   13.07180797309472
H         0.53348931016505    2.09255315825999    6.80998368958035
H        -0.99993053369284    1.40928125414995    4.99660993527056
H        -0.65711544978980   -0.72515344749764    3.80778346576526
H         1.21027744474176   -2.20410732678242    4.43697460118556
H         2.73537633551189   -1.56474453912933    6.25904063533852
H         4.22639805755566    0.18153733303595    5.43718460141676
H         6.50592651290637    0.74258987318356    4.69835136417434
H         8.01028351428879    2.01790502626399    6.17271783972597
H         7.23248602461475    2.75971167203322    8.39274409017316
H         4.92650490434279    2.21776605521640    9.13333461953474

