48
CSD_code = NEDQIX | q = 1 | S = 0 | Stoichiometry = C20H23N2OPRe(1+) | MND = 8
C         3.32906291562416    2.28191273338226   11.63287912401736
H         3.80868176878652    2.70009636995890   10.76202538734759
C         2.36193409075431    1.23604451297107   11.62591471825002
H         1.95994910745275    0.75144639884062   10.74928705584704
C         2.14302413892020    0.83871676232348   12.97434610117486
H         1.54943035068959   -0.00382922189260   13.28938743093920
C         3.02581752821210    1.58391720280494   13.79641018421496
H         3.18623539066361    1.42596103234447   14.85129611970426
C         3.72924104177177    2.49190558528670   12.98961465507839
H         4.56479177254552    3.09662673442764   13.30706849229689
C         3.49529925751328    6.04606808292082   12.90136391311241
H         3.49684876119011    7.13545961238596   12.85774060140291
H         4.22294235694366    5.64894358105917   12.19554104016536
H         3.76262095697490    5.72687490892808   13.90781086961691
C         1.33871648135829    6.27248892472193   10.96955537521854
C        -0.02504665477621    6.29763437826091   10.67596212183760
H        -0.72380292437348    5.84525166674926   11.36722434208755
C        -0.47073033477056    6.90130584854060    9.51711815672721
H        -1.52570102007745    6.92218896742146    9.29307921229651
C         0.43962081841962    7.47350619439551    8.64034626358808
H         0.09174774985101    7.94232050409367    7.73310828032836
C         1.79467054918290    7.44014170259966    8.92420969480742
H         2.50145066759228    7.88198848324576    8.23869097083036
C         2.25036496367334    6.83748165152343   10.08454107893348
H         3.30943874254775    6.81155075646817   10.29228079623839
C         0.75211513978981    6.15324252849527   13.75648774030560
C         0.07218613634060    5.30056581658216   14.62721092366134
C        -0.77030707612736    5.85671599870005   15.58272713587092
H        -1.30641905690984    5.23309685198824   16.28043718132392
C        -0.94087410645978    7.22858386781313   15.65830956205389
H        -1.60410937379129    7.63814041111718   16.40373147101729
C        -0.26916734055281    8.07108429759962   14.78774211860387
H        -0.40722057581642    9.13872304373752   14.84891360610356
C         0.57544409030364    7.53097921217510   13.83763307002896
H         1.09554826822296    8.17011648309296   13.13895737615061
C         1.10879277422977    3.48115263601531   15.73348229640681
H         0.64648774794695    3.82645801713518   16.66236014690993
H         2.09573123753007    3.93880755323026   15.65520013307663
H         1.20473776755898    2.39831469152876   15.78321955851217
C        -0.99766903645650    3.13242890270203   14.63926780469333
H        -0.83202950037814    2.07409768206147   14.44307513277161
H        -1.67997786849991    3.52915268961776   13.88914762989896
H        -1.45920439925666    3.22528550548345   15.62351987673575
N        -0.07174249891887    3.15650280615194   11.76507283226637
N         0.28970870750233    3.85231942995393   14.56756450787970
O        -1.05755240750352    3.15730897894206   11.13942901184645
P         1.83424672287968    5.42390987048381   12.48520804191257
Re        1.43796617167665    3.08770935162026   12.63950085591991

