88
CSD_code = NEDRAR | q = 0 | S = 0 | Stoichiometry = C46H34N7Re | MND = 5
Re        2.03123334848660   -2.37448846181718   -0.32973411606569
N         0.04269684104659   -4.72227830151131    0.53309403258851
N         0.28057278043145   -4.63410848290140   -1.58572104217300
N        -0.69082271373667   -5.54828158906638   -1.36025561372010
N        -0.46945889859353   -1.33858039784594   -2.33789540012514
N         1.53770661007852   -0.79988744463626   -2.78654290891309
N         0.81714560213430   -0.35613649463798   -3.82370533758847
N         1.81281317872649   -1.63621083080143    1.21771419558240
C         0.74975430603429   -4.06829332210451   -0.43877297069564
C        -0.82525426473720   -5.60026796452775   -0.07036583132937
C         0.80330738461223   -1.41825425199789   -1.85908509504538
C        -0.41494256200686   -0.68218682109189   -3.54886260523617
C         0.30980522753150   -4.69733061126168    1.92457362300088
C         0.72725620591228   -5.87664436931217    2.53053587869772
H         0.84812715279905   -6.77263867343702    1.93865083887570
C         0.99957523558667   -5.88798525219983    3.88528033521553
H         1.33157107760457   -6.80134222069850    4.35540199949132
C         0.85991173314573   -4.72881541157485    4.63092947430580
H         1.08352615592126   -4.73845150191813    5.68703858947982
C         0.44083556580768   -3.55861323089200    4.02158024708689
H         0.33852449542524   -2.65262717072443    4.59799398170149
C         0.15691589515220   -3.53581188116196    2.66685606442828
H        -0.15809386304487   -2.62580049939983    2.18355512081755
C         0.61720230704247   -4.33269480694095   -2.91097984805213
C        -0.35878918843779   -4.45254260956973   -3.89735873952894
H        -1.32258817739892   -4.85283458738733   -3.62461106845836
C        -0.07683351850883   -4.05644615562165   -5.18990517417239
H        -0.84134556658482   -4.13174103993103   -5.94919256820318
C         1.17425423123243   -3.55208725545966   -5.51253965087579
H         1.38361113099374   -3.22335217466362   -6.51906868681127
C         2.16411932454728   -3.49605810362739   -4.54635199468160
H         3.15167208422566   -3.13755662455371   -4.79823492893705
C         1.89543863754932   -3.89827858476015   -3.25008942630705
H         2.69141232825515   -3.91544342800453   -2.51641156830142
C        -1.80421644417475   -6.44001573641510    0.59895892144769
C        -2.40426340401594   -6.05478198607198    1.79559025166327
H        -2.14081414579540   -5.11617858216663    2.25776086173642
C        -3.35221351338567   -6.87080988575078    2.38402003357866
H        -3.81288770511108   -6.56776428405942    3.31231895435313
C        -3.71177431744005   -8.06928393543148    1.78990313407413
H        -4.44915406522091   -8.70432739794287    2.25769151399402
C        -3.12849449453355   -8.44834500575185    0.59148715486381
H        -3.41226492430530   -9.37841905644990    0.12206628162839
C        -2.18185956538907   -7.63825396245014   -0.00499299947779
H        -1.72029603148700   -7.91944244973072   -0.93889454637587
C        -1.56754508334576   -1.94443626304011   -1.69661123389021
C        -2.52107776353387   -2.64602997106456   -2.42502458592500
H        -2.46827488850488   -2.66923495204467   -3.50304915534248
C        -3.52453450459768   -3.32196232476095   -1.75589978877388
H        -4.25749665514116   -3.87824515761085   -2.32024190019185
C        -3.58278299242181   -3.30006855326767   -0.37202411210409
H        -4.35884423766073   -3.84553958907823    0.14323675977970
C        -2.64399086372815   -2.57970093329281    0.34711647528137
H        -2.69413499704652   -2.54726028521063    1.42501170970517
C        -1.63452760938441   -1.89721337908421   -0.30791520570204
H        -0.88940503845705   -1.33554937581454    0.24010781761019
C         2.91111813214244   -0.58575340167170   -2.57604219653828
C         3.67893383549819    0.07342420371334   -3.52142224043543
H         3.22699357666761    0.38643389846451   -4.45126280513093
C         5.01007975914583    0.31236349773896   -3.23551256439235
H         5.63381369735052    0.82119358684175   -3.95591363280357
C         5.53192814611746   -0.09643481366575   -2.01812405424760
H         6.56877933635130    0.10418698157967   -1.78793695444071
C         4.74447335257758   -0.76571311949538   -1.09285855958727
H         5.17850478904095   -1.07777010322337   -0.15317853984359
C         3.40139084983694   -1.04746414069487   -1.33847440278803
C        -1.54631963582627   -0.33616127514674   -4.39188061702262
C        -1.40024215290800   -0.40274094091948   -5.77564792048192
H        -0.45618397837243   -0.72726407576610   -6.18541087569188
C        -2.45508750602913   -0.05896853332477   -6.59901912385449
H        -2.34016103861134   -0.11551230770658   -7.67119833061198
C        -3.65685477587524    0.36058297475161   -6.05116387933165
H        -4.48028784151938    0.62891039350802   -6.69588345958325
C        -3.79903373371486    0.44518940651298   -4.67560050158781
H        -4.72947814002099    0.78652279442262   -4.24709368692929
C        -2.75051103262179    0.10046845693008   -3.84383699895734
H        -2.86028779486984    0.18546407998413   -2.77225717095322
C         3.66133393484757   -3.65659293407450    0.29244673722800
C         3.76195334969025   -4.25498448709430    1.55585053585678
H         3.04929701055316   -3.98278910101280    2.32280599096617
C         4.75567346256753   -5.16747976880292    1.86192777572904
H         4.79369907114184   -5.60226691270545    2.85179308046857
C         5.69701695515250   -5.52529660998361    0.91238599798496
H         6.47114911808879   -6.24308191259431    1.14568600522064
C         5.64106171123140   -4.93783825194238   -0.33673525245723
H         6.37689762740944   -5.18827654595455   -1.09005433692270
C         4.64600797161994   -4.01979606098260   -0.63235998393391
H         4.67653510079432   -3.56832135514489   -1.62146418291040

