44
CSD_code = NEDTAS | q = 0 | S = 0 | Stoichiometry = C14H21Cl2NO2PtSSe2 | MND = 4
Pt        5.03609683304750    3.70680255122165    6.35668814693059
Se        3.56506649647751    2.68389561765227    7.91602108727745
Se        3.61228367479548    4.98570893590302    4.95264316060411
Cl        6.53035701313111    2.63305284431160    7.76077821017934
Cl        6.57900644248339    4.78683715347834    5.01127637805418
N         3.79025257118221    6.01017437392868    8.13620147571586
O         1.87605776031419    7.61678482253258    7.81567307216705
O         1.85466149794070    6.10075721253118    9.74670677319195
S         2.59615905103077    6.95908244502260    8.86814608412123
C         4.52708945176822    5.19814499119408    9.09168140267750
H         4.70321551704278    5.75985904475810   10.01898786496774
H         5.50273336695602    4.93520559800065    8.66624217768497
C         3.77897319598503    3.91579795944212    9.43142359904086
H         2.78145582270681    4.13875717735526    9.80935381042699
H         4.35083980484910    3.36029419680224   10.17713221347163
C         1.68236155915431    3.03022703923913    7.41492718530316
H         1.43037585867823    2.22324042814476    6.72036854468733
H         1.11650314658786    2.87885097440140    8.33589104834525
C         1.32026884810151    4.38237894253865    6.81941750278510
H         1.71995746483705    5.18545662441531    7.43666928745617
H         0.22978916640574    4.46854531308150    6.86634632422580
C         1.71922218458741    4.58568983411419    5.36553943719982
H         1.15890276459307    5.42546027359815    4.95053557245922
H         1.49104341705736    3.69452178612534    4.77319093342801
C         3.80812871425178    6.75349386849325    5.78827538631410
H         4.38468719643146    7.34804791551297    5.07710642663471
H         2.80754908897025    7.16966255758259    5.90352700138622
C         4.54179729009071    6.73397374765450    7.12295991225319
H         5.51675351090847    6.25263120984424    6.98274890739950
H         4.71920736383936    7.76965117661067    7.44250320830387
C         3.45343128793464    8.18719831757470    9.84086503591378
C         3.78980343634459    9.39899790262355    9.26426077469681
H         3.48119538732402    9.60499636370028    8.25122662929826
C         4.47638796799806   10.33708650802262   10.01251844897620
H         4.74036358195267   11.28627844632201    9.57056592280063
C         4.82641905389710   10.07590453644787   11.33546384968195
C         4.45645233602832    8.86041097516063   11.90077045901450
H         4.70251446909479    8.65266677184110   12.93136038507289
C         3.76863977541342    7.91532779832213   11.15868853640829
H         3.44479596603800    6.98477471645461   11.59817833980199
C         5.57916629308285   11.09835106390534   12.12589104739203
H         6.58452792352129   11.21527238944945   11.72278458828841
H         5.65735332717580   10.80784593719888   13.16970934484516
H         5.08465311998876   12.06590165748887   12.06515450311576

