125
CSD_code = NEDVUQ | q = 0 | S = 0 | Stoichiometry = C40H74N6Si4Zn | MND = 4
Zn        5.38088331811937   11.72582747426893    4.46349518042295
Si        5.10570964939964    9.59348471071670    2.22815582075235
Si        2.70311131259807   11.33869213906658    2.75403464089103
N         4.87952266399055   13.58628471280628    5.45835845231790
N         4.31922524216263   10.87098292892399    3.07977292993792
N         5.98070622122877   16.53996274395969    5.36965859987728
C         5.38088146343696   14.27152028848576    4.46349595746215
C         5.38087710987292   15.75722384136891    4.46348784523226
C         4.25002083260180   14.09001014083377    6.57594645672432
C         4.38910271371354   13.35051666037920    7.75644675807031
H         4.98339136054322   12.45163163285046    7.71217175698264
C         3.01746213483822   14.92648985709250    8.96766177083845
C         3.78922006843820   13.76880741649177    8.92346109605836
H         3.91719306137590   13.18256773710635    9.82243346849920
C         2.37066118652461   15.37318035760529   10.25544786239975
H         2.64063953984905   14.65419770943335   11.03662534161050
C         5.76056081392200   17.85595737423655    5.03103553301317
C         3.45105951648352   15.23779922850618    6.61114619141376
H         3.26032150154723   15.80107252948028    5.70844724558768
C         0.84582414741070   15.38454578813732   10.12733811553224
H         0.52420002396646   16.11594221260019    9.38961923050433
H         0.38866166613492   15.63652787425262   11.08187415068374
H         0.48684398572229   14.40568577434315    9.81780244056793
C         2.85183258911632   15.64140268241374    7.78894128449577
H         2.23525710306803   16.52926522240008    7.77856182122949
C         2.58555031058961   12.50612186605204    1.22574826997771
H         3.32600844328874   13.29806378561309    1.26801906829545
H         1.60525337599633   12.96660098638150    1.14136522393936
H         2.76393636411415   11.95029698392012    0.31206429392184
C         1.93014957386909   12.26891182056794    4.23464153051509
H         1.57418505665411   11.56960857342422    4.98231015222886
H         1.08423994888018   12.87945528660075    3.93136944532100
H         2.65774526595321   12.90884797054802    4.71895681131709
C         4.49990710288610    7.85407710365186    2.75518906530632
H         4.35944755027462    7.79563779055748    3.82858079543078
H         5.20992319449677    7.08322593771153    2.46994307415267
H         3.55186399766661    7.61369770426850    2.28576028378750
C         6.79119428143044   16.08128410387388    6.47724934762800
H         6.36951250401116   15.14570762390895    6.84821641184948
H         6.72737378820081   16.82980702824880    7.26905100716901
C         6.98302487777138    9.71880118011037    2.52991184159403
H         7.39043452206416   10.63837191711521    2.12131124946373
H         7.52055425790542    8.89038145653228    2.07793990020628
H         7.18864328517349    9.71296115834758    3.59479998709492
C         4.83126200226596    9.67550269185061    0.33069231281786
H         3.77588623580856    9.61026032076776    0.09137183859698
H         5.32983735273355    8.84678656755920   -0.16225022192454
H         5.21017785886152   10.59223146574515   -0.10845923974450
C         2.89000243230578   16.74981665369425   10.67809758851863
H         3.97369016465697   16.73181020128179   10.77661176343918
H         2.46080263249846   17.03705452049314   11.63545235798181
H         2.62269753166427   17.50596912230623    9.94325756449958
C         8.24019587869286   15.85608737302138    6.05926467777307
H         8.30778429693968   15.02683976276100    5.36020713608770
H         8.82695290730646   15.60043834292379    6.93597025315027
H         8.66467516363532   16.74876308178225    5.60324874903254
C         6.28219756218278   18.98566179260201    5.84024701546836
H         6.04021191656380   19.92942323978938    5.36159195264830
H         7.36336784885513   18.92115202803199    5.94886811932694
H         5.83801669533924   18.98104764042417    6.83557290204925
C         1.51807697552006    9.88569064923787    2.38449726128209
H         1.80819647786837    9.36564565548166    1.47885937546039
H         0.49774508013864   10.23310967771312    2.25277666126518
H         1.51936549048280    9.16229586472616    3.19236051027812
N         5.88224631154842   13.58628642502251    3.46863492668601
N         4.78106003465163   16.53994804614092    3.55729639835586
C         6.51173588233216   14.09001636488521    2.35104206576282
C         6.37264855214494   13.35052573535138    1.17054111488510
H         5.77835570664071   12.45164289908847    1.21481604058581
C         7.74427042629816   14.92651158073790   -0.04068112817195
C         6.97251905925884   13.76882439107266    0.00352273597305
H         6.84452906555613   13.18259364976637   -0.89545376773688
C         8.39105504508175   15.37321618113305   -1.32847178791721
H         8.12109402499760   14.65422905199598   -2.10964807268194
C         5.00122848719837   17.85594835376443    3.89588275847722
C         7.31069816150916   15.23780381071961    2.31584221043544
H         7.50145108239807   15.80106711154356    3.21854471461373
C         9.91589714263625   15.38459152419829   -1.20038631086837
H        10.23749576177911   16.11601555235811   -0.46269343187713
H        10.37304571703221   15.63657429901748   -2.15492812801961
H        10.27492300670532   14.40576023212721   -0.89082686476963
C         7.90991187733011   15.64141540926888    1.13804333646230
H         8.52648966779487   16.52927602960512    1.14842482138621
C         3.97056086938415   16.08125349098507    2.44972019272234
H         4.39221160537524   15.14564761909662    2.07879218930045
H         4.03440862546246   16.82974299516448    1.65788884766665
C         7.87166050843696   16.74983424253016   -1.75111425334658
H         6.78796920620810   16.73182275076424   -1.84963166265114
H         8.30086417704922   17.03707695413611   -2.70846487873948
H         8.13896151887059   17.50598711140319   -1.01627292139253
C         2.52154996178064   15.85612169571480    2.86770755300369
H         2.45393072586365   15.02689828985767    3.56679059104706
H         1.93478586862572   15.60046576914490    1.99100878696435
H         2.09710129739377   16.74882659012836    3.32369460622271
C         4.47961494750050   18.98563880585474    3.08663643310454
H         4.72161720977779   19.92941235138339    3.56525952393802
H         3.39844390929914   18.92114624079977    2.97801548331495
H         4.92379682986535   18.98098303582665    2.09131139724409
Si        5.65603317086294    9.59347228934377    6.69882789507593
Si        8.05863948357099   11.33867561748817    6.17296456124198
N         6.44252737463392   10.87096836101276    5.84721657126165
C         8.17617455130022   12.50612834341638    7.70123351871582
H         7.43572480351695   13.29807824191923    7.65894017840909
H         9.15647694748901   12.96659459661176    7.78562403029317
H         7.99776787114577   11.95031264630388    8.61491916615649
C         8.83160923704741   12.26887637518768    4.69234922339458
H         9.18760322024473   11.56956098626350    3.94470596028084
H         9.67750170645786   12.87944021392866    4.99562711747850
H         8.10401460845965   12.90878933644917    4.20800027091890
C         6.26183243976450    7.85406520308791    6.17178850614923
H         6.40230584163956    7.79562990504822    5.09839816941207
H         5.55181342220556    7.08321248282308    6.45702296434263
H         7.20986943850674    7.61368420999077    6.64122792747138
C         3.77871880035396    9.71879362420287    6.39706168872730
H         3.37131300695932   10.63836912138393    6.80565500205550
H         3.24118159442132    8.89038122112098    6.84903799585284
H         3.57310062080323    9.71294796104573    5.33217338465908
C         5.93046546032503    9.67548586733422    8.59629273897748
H         6.98584207328554    9.61026345230271    8.83561510706357
H         5.43190406729014    8.84675519166695    9.08922565868141
H         5.55152807803348   10.59220494117827    9.03544676142455
C         9.24366125273899    9.88567219384896    6.54252616785719
H         8.95352725232696    9.36563719642955    7.44816534506792
H        10.26398910618334   10.23309813494344    6.67425696969178
H         9.24238286492063    9.16227172770833    5.73466731107928

