85
CSD_code = NEDWAX | q = 0 | S = 0 | Stoichiometry = C32H48N4Zn | MND = 4
Zn       -2.02112939143693    5.36505434409717    9.20992005501587
N        -6.96068532684738    5.36102545300220    8.43210520997128
N        -4.03836490469465    6.33581664267839    9.07564076204223
N        -6.80974288632780    4.73895548661343   10.51509796541975
N        -3.86715976336426    4.14392903890993    9.56260369013873
C        -8.24316308764216    5.15555783996953    8.88984938551650
C        -4.61823245749280    5.19565471501472    9.35371527352422
C        -3.60826730811711    1.94769543328191   10.40952669170721
H        -2.76588653650210    2.32212123613888   10.97088235719598
C        -8.14933724849968    4.78082873099513   10.19868071309622
C        -6.10337962698396    5.09849992066183    9.43149591595477
C        -4.31002386633967    2.84872969047697    9.59793457573817
C        -5.68057113152384    7.93538453785239    9.95869543779147
H        -6.03393625841751    7.24287782124581   10.71065893608960
C        -4.64956097643648    7.56100770589410    9.08837366202968
C        -3.98335511725821    0.62490104854406   10.48767004853813
H        -3.42892584462388   -0.04607233332786   11.12928232481250
C        -5.76076841476879   10.15420893043371    9.00234894265690
C        -6.21952428866671    9.20712418393315    9.90711409475166
H        -7.01429352357103    9.46879649937450   10.59402890534594
C        -5.36696252987874    2.34218362577228    8.83009110417366
H        -5.88080136605585    2.98449679397251    8.12759331063640
C        -4.15678167886956    8.53532791822546    8.20890224455359
H        -3.33254540011437    8.26443251500672    7.56672812225917
C        -5.05974434341515    0.13196596649981    9.75525133081116
C        -7.00494998551896   11.78496990756619    7.57157071834668
H        -6.24630837323988   11.76254775870020    6.79330217755414
H        -7.48827899798431   12.75953412910481    7.55185627041966
H        -7.74995102356683   11.02424067830614    7.34514664146425
C        -6.37862387808105   11.52921613732829    8.94478924400849
H        -7.17503025603091   11.57725588097056    9.69707869868334
C        -5.72864236425659    1.01220476267296    8.91408726519149
H        -6.54709045128647    0.65730989582192    8.30296227545924
C        -4.70614061560742    9.79600018456925    8.16490955268702
H        -4.30643746808665   10.51745667570327    7.46752680627077
C        -6.44432929032273    3.00660989267565   12.24864401791290
H        -6.09100592928881    2.32384518521165   11.48154956128624
H        -7.48894413374041    2.79507433813211   12.45715932316040
H        -5.87061423608640    2.82889235541606   13.15356217634248
C        -6.23713507001013    4.45249567083667   11.81253947308192
H        -6.68230363981548    5.13507295863476   12.54501444485619
H        -5.16818476634951    4.66768704418190   11.74547406498627
C        -1.36510764215683    5.84837040312177   11.13610251463767
H        -0.58780247819006    5.16632461891815   11.49059296336187
H        -0.90412036163682    6.83990855245576   11.13287928919751
C        -9.23598432975260    4.48355649739147   11.16628440590979
H        -9.42134219185611    3.41122608360390   11.22844570747034
H       -10.15368336430532    4.97129341953305   10.84901006141121
H        -8.97797745417309    4.84580316550638   12.15872847838343
C        -5.46645906695907   -1.31698064262938    9.86257685058249
H        -4.80281165124352   -1.80217457106580   10.58707311609450
C        -6.56961601048597    5.70607809150949    7.08239403613414
H        -6.99619014884545    4.96352245973563    6.39870442586717
H        -5.48066958363274    5.63269771895206    7.03585143178499
C        -7.00744947231318    7.10779425217634    6.67372849508547
H        -6.56105240855230    7.34674767310166    5.71288703720548
H        -6.66586421251928    7.83975712645410    7.39953923152497
H        -8.08676198644029    7.18063747018994    6.57821807571870
C        -1.53280126939873    4.95981804395359    7.21574489576193
H        -0.86458720418485    5.71515727433479    6.79369088743167
H        -0.98266275757567    4.01660468967315    7.15551312204327
C        -5.34614554508954   12.60825338914472    9.27655798918947
H        -4.89798913919002   12.41532397432571   10.24871164006990
H        -5.81749753625478   13.58880085755007    9.29924890391119
H        -4.55379795339968   12.62525783552593    8.53271687197170
C        -9.45571987642534    5.30867970385255    8.04622743836583
H        -9.77657981107969    6.34968468460869    8.00853780591081
H       -10.26732543253708    4.71573845176362    8.45905699909593
H        -9.26352794746191    4.97114130319625    7.03038997564386
C        -2.48162993795314    5.86275928807527   12.17945793584180
H        -3.26950068909698    6.56163242654930   11.89879349942898
H        -2.10677593522308    6.16656305612970   13.16324645012488
H        -2.92419379392868    4.87252473989012   12.28959577480795
C        -6.90278708452352   -1.44503858414066   10.37592832481045
H        -7.00850520416671   -0.94201569081395   11.33531822130737
H        -7.16659375550662   -2.49269187116575   10.50390571755094
H        -7.60429994701928   -0.99922417994026    9.67452142979272
C        -2.74616927555182    4.84512819087477    6.29361647740449
H        -2.44902409600822    4.58618314716320    5.27117011067749
H        -3.29103743536117    5.78829482667620    6.24694113690619
H        -3.42928253829119    4.07029803207578    6.64196902795232
C        -5.30611339123096   -2.03185980671413    8.51941046278380
H        -5.97141968195276   -1.60538109631116    7.77253316426413
H        -5.53899565302440   -3.08970607323297    8.62289079024614
H        -4.28373098840383   -1.93460613310843    8.16162505487607

