45
CSD_code = NEFCAC | q = 0 | S = 0 | Stoichiometry = C18H18N2NiO2S4 | MND = 6
Ni        6.25309084812036   16.64570622609093    2.80284262754058
S         4.27333147118300   17.28149804116439    1.92000253336491
S         4.85740446189554   16.21499063772455    4.51294387372281
S         8.03224621284499   15.51243786780257    3.69854386819686
S         6.16761661489526   13.93626099083981    2.04852775363815
O         2.43202007732872   16.48986182818046    3.66296957287940
O         8.15650743268796   12.97356785777334    3.48151992513023
N         7.01453530080079   18.67872144444246    3.55674096721192
N         7.31313151655583   17.21510301589014    1.28978967790001
C         6.89087916509470   19.35160333622363    4.67760964840743
C         7.59610962561003   20.53211137041289    4.94121065297932
C         8.45180101133481   21.02583957842626    3.98761955018328
C         8.60730836587876   20.32602242198620    2.77913013153611
C         9.46555704260683   20.76228362376519    1.72992650581833
C         9.57754256036084   20.05387105443692    0.58114182692880
C         8.85465013830613   18.84119953084648    0.38637621101837
C         8.95510807707776   18.07574519363147   -0.78664285571403
C         8.22666950855619   16.91617909261692   -0.89120983578256
C         7.41593502340318   16.51841601640942    0.17391496381901
C         8.00267322263487   18.37117103146328    1.40874260509032
C         7.86453153150101   19.13690144934228    2.61757735535242
C         3.70724301990357   16.64538026173135    3.37170243600391
C         1.46681639269522   16.82558080634577    2.67035295953407
C         0.08927297652093   16.54605634092430    3.24065993107109
C         7.46404651356730   14.03070527822747    3.08568122999696
C         7.74672350018092   11.69228371443883    3.01920178504011
C         8.67757790371194   10.65524042155562    3.61859702351751
H         6.20229275240419   18.94520514520588    5.40703911429105
H         7.45657294057230   21.04101147894534    5.88203195761400
H         9.00631281470228   21.93926244825542    4.14951790977131
H        10.02385301757885   21.67588927221759    1.87375612312450
H        10.22487541434531   20.38997279583594   -0.21554224735736
H         9.60023780314427   18.40741258813091   -1.58709243336905
H         8.27285920836409   16.30423302404677   -1.77793007612376
H         6.84071577888797   15.60013974821602    0.11787572708619
H         1.65601984986068   16.22525236391716    1.77206691791959
H         1.58250531433881   17.88380052444789    2.40388334411612
H        -0.66728535073065   16.78943816907316    2.50070079177857
H         0.00397170415438   15.49646555978397    3.50814857896677
H        -0.07469452732062   17.14611906371889    4.13162112853180
H         7.78452643930962   11.67841567209901    1.92257269788630
H         6.70715024202984   11.51752324274347    3.32296093423827
H         8.38034968736414    9.66421945232807    3.28817896080989
H         9.70031011246861   10.84636240403329    3.30506593656402
H         8.63349728326885   10.69963861430005    4.70337170973924

