43
CSD_code = NEFLUH | q = 0 | S = 0 | Stoichiometry = C16H24BPZr | MND = 14
Zr       -0.60315688887360   11.32252703138512   10.01904627703160
P        -1.98333132964431    9.31823886023008    8.75598652432937
B        -0.71908712178147   13.80310218077476   10.32008777511737
C         0.33579868884562    8.84632386376737   10.63634326375219
H         0.19508612542810    7.78742187999652   10.85372706709063
C        -0.20255030936228    9.77891129825323   11.63744649903234
H        -0.77104108168867    9.29792554064089   12.43999128833814
C         0.51495253687976   10.96745480277631   12.03829393828670
H         0.34698788953761   11.32188798328099   13.05755522644290
C         1.43368820245390   11.71929778758467   11.25629995972410
H         1.88727893808003   12.57367673205171   11.75490117804470
C         1.67860935624238   11.61357515742101    9.86153034265425
H         2.30392024580409   12.39004741894566    9.41647360005948
C         1.27680043550809   10.52307613200063    8.99199113250152
H         1.71631063283635   10.55349647945884    7.99047818306578
C         1.02401534282414    9.17810751995803    9.49892451148533
H         1.34231220898749    8.36207827858105    8.85169578928744
C        -1.59204851296285   13.10599759504177   11.36104847867060
H        -1.48691007563367   13.27676395661520   12.43414126702123
C        -2.71396752638815   12.36126750441369   10.96223943401194
H        -3.42540898074157   11.99701648289240   11.70705225166886
C        -3.04086035776945   12.20031414256434    9.60413934018358
H        -4.00417748366617   11.76883918183926    9.34567218661650
C        -2.19833362105946   12.68614457066285    8.58782178361871
H        -2.52321880111336   12.57347619544811    7.55228797253333
C        -1.03404164869618   13.41938237815081    8.88097109111266
H        -0.49670479032715   13.82829102926368    8.02075863741675
C         0.40949060269904   14.87383529248698   10.69464871133462
H         0.04889415427506   15.88762372837233   10.51581520950506
H         1.30822238013418   14.75726495393714   10.08943233507308
H         0.70440574808350   14.82858625800855   11.74161886899661
C        -1.37638909867990    7.71102885197143    8.07355329615652
H        -0.82783785856117    7.16240469405996    8.83244225198895
H        -0.71045051813130    7.90915218069404    7.23551970887218
H        -2.21958783591443    7.11198712368346    7.73007360945582
C        -3.19555869629559    8.64635834251935    9.98564349791658
H        -3.77618159701895    9.46289575447405   10.41589176973511
H        -2.63303265301610    8.16371749656008   10.78526170767637
H        -3.86839218647894    7.92283881485325    9.52386654162484
C        -3.15523126603170    9.65655113093821    7.34952372241641
H        -3.74322406101335    8.76731951151131    7.12155674626713
H        -2.56917822794847    9.92713930094690    6.47061260587831
H        -3.83257096268922   10.47425457899907    7.57753441967493

