69
CSD_code = NEFMUH | q = 0 | S = 0 | Stoichiometry = C24H32Cl4N4O4Pt | MND = 6
Pt        6.15105474240864    6.91022723390350    5.48483866347765
Cl        5.55080664006208    5.53237808583068    7.30949750362340
Cl        5.23375472478493    5.29337215271545    3.98576783529443
Cl        6.73971612174985    8.26036101835536    3.63883339683254
Cl        7.01637636512136    8.54665200116661    6.95411421296106
O         5.09050441342174    8.18603834764162   10.08159702460154
O         3.47299893012845    9.49895838991280   10.91907965605965
O        10.48460216852150    6.76574222918566    2.34324395032073
O        10.83447686877457    5.12169670249088    0.85919105592350
N         4.31949830174403    7.77481767707330    5.42488114110999
N         3.93640879006201    8.27329063906627    7.62109351304603
N         7.99187217540903    6.05690529774260    5.56401301629051
N         8.28802421129496    5.40349566283731    3.41097141419323
C         3.53772068107765    8.21971865221009    6.35599053082475
C         2.14626462436067    8.71844672500704    6.04496507395445
C         1.73343165907718    8.59839013278446    4.58314037226135
C         3.13017375487845    8.65616693132080    8.74707505943485
C         2.07034141509741    7.62498135856359    9.09965619937087
C         0.83764342538838    8.03002059782406    9.59391866859991
C        -0.11466676027635    7.08691329959346    9.93852496636697
C         0.16058070334216    5.73756000511344    9.79209054725205
C         1.39278947395920    5.33322700058181    9.30602207912956
C         2.35161690551521    6.27096283721733    8.96397223541430
C         4.03879348615911    8.74625626803883    9.97618463853677
C         4.18890008100910    9.59782166569965   12.14634788839326
C         8.74485623229189    5.52775624241097    4.65096441531555
C        10.12956863508422    5.02179064725278    4.96942279557273
C        10.45888594876924    4.95517606348078    6.45644698667167
C         8.95805797891123    4.87157510407049    2.25633305532696
C         8.01438524902561    4.87494166477455    1.07166116332527
C         7.30563387776697    6.02978748711004    0.76141682440164
C         6.45071270711061    6.04184434994761   -0.32617506495159
C         6.30647228355367    4.91217051106177   -1.11374531555450
C         7.02110056046359    3.76584523631088   -0.81192849553585
C         7.87422451099984    3.74648134530922    0.27763013687249
C        10.17243824786165    5.71840960551834    1.85075431771805
C        11.94894369816774    5.83408130604526    0.33362818309281
H         3.93427445009775    7.80169845495049    4.48486337667672
H         4.86976020145708    7.92013445175808    7.85113725864350
H         8.40779355529722    6.11693629427690    6.48935659099272
H         7.33898937083128    5.74627362144734    3.25052595110024
H         2.09087549072355    9.76611819119263    6.35338003465474
H         1.44897492864048    8.15461367411271    6.67029648974534
H         2.37278722378877    9.20114486144780    3.94140609826002
H         0.71277442215952    8.95503736450012    4.46769218470163
H         1.76556583330137    7.56255752108683    4.25242835552233
H         2.66237380210702    9.63597379660482    8.59435674740830
H         0.62588673632170    9.08303938341702    9.71137208404584
H        -1.07274009295181    7.40718931280886   10.32017525807288
H        -0.58421630463501    5.00297861303636   10.05966538152635
H         1.61444801566407    4.28290563948182    9.19484782252846
H         3.31360571978008    5.95249711934280    8.59090895857438
H         3.63593996015380   10.29960057620266   12.76415758622917
H         4.24327248663221    8.62080339117956   12.62900136803248
H         5.20227657451057    9.95825204806866   11.96284388565955
H        10.83790622269912    5.68593102082618    4.46898832065187
H        10.23568265653700    4.02764345419759    4.52769470313353
H        11.44418336850063    4.51405486456077    6.58704418392902
H        10.47941504865560    5.94765718773783    6.90112959601116
H         9.73846713433581    4.33780198635272    6.98911710637768
H         9.31282624249876    3.84754083391428    2.43755738231702
H         7.41482067360178    6.91692705348894    1.36779852086736
H         5.89726602758231    6.93913948391860   -0.55723645808076
H         5.63798856353404    4.92422625070073   -1.96177831248857
H         6.91161900930299    2.88181031448981   -1.42237090055250
H         8.42881254679586    2.84973313290399    0.51234459276540
H        12.34759445609743    5.22109263306444   -0.46963390118989
H        11.62945682589451    6.80579380326305   -0.04582180872354
H        12.70075501708073    5.98833319047577    1.10983189712612

