116
CSD_code = NEFPIA | q = 0 | S = 0 | Stoichiometry = C43H65MnN2O5 | MND = 6
Mn        3.66251080283223    6.29121403936711   10.23511635899793
O         5.23910907636263    5.43786045559990    9.87923086885048
O         2.92165828381056    5.06322998412828    9.02349836705507
O         3.10084299684746    5.33157565569428   11.62671315597139
O         3.65036488932259    7.65821896087587    9.05799934096917
O         6.36647971655976    1.14371769508849    8.46229040875697
N         1.61090590771734    7.36856528832410   10.81670068497374
N         4.40596701447292    7.71143448186483   11.79554796793156
C         1.99643503088624    7.51381430902584    5.82339044331386
H         2.24640022505871    7.28130631561153    4.80043546528015
C         3.01769282099681    7.43712438701275    6.75658130072121
C         2.74039567067831    7.71915026865403    8.10352839839563
C         1.42926031450519    8.09391987648358    8.45858623856499
C         0.43606855832892    8.15077920764711    7.50252172430366
H        -0.55920631009805    8.43438145647396    7.81547672325821
C         0.69435874046069    7.85830301570071    6.16514872876404
C        -0.44068764716501    7.92221646057411    5.15406252517222
C        -1.53774989189911    6.93207422416009    5.56991368942611
H        -2.34897336013010    6.94151252687851    4.84452464236905
H        -1.94902028795357    7.18296818364319    6.54355508317426
H        -1.12966025193500    5.92530124191150    5.62164731782384
C         0.01102498682520    7.56067928107467    3.73684785821865
H         0.40157980519022    6.54667709641253    3.70033679656793
H         0.77312671247005    8.25023871611974    3.38193545206019
H        -0.83817710495045    7.61986706412405    3.05855719367375
C        -1.01117848749070    9.34714447694131    5.12391678521800
H        -1.81718964154884    9.41505135592919    4.39589177901478
H        -0.23382579777248   10.05585854165905    4.84664136058864
H        -1.40385425355443    9.63648885933721    6.09461945030900
C         4.41440594396797    7.05606002096534    6.36701141381689
H         4.41330702556496    6.37995982431608    5.51525837148425
H         4.90971817835734    6.57492424833948    7.21123430069271
H         4.99248169008399    7.94250518801760    6.10228681526164
C         3.42292532391894    3.02954390235974    7.80901796044647
C         4.42689632451688    2.18331383139348    7.50773175323200
H         4.22658022172807    1.26407834167490    6.98299483511549
C         5.87616810650238    2.35661062523994    7.86476200319436
C         6.10413900839165    3.52283703126001    8.77448801688052
H         7.09184724133392    3.65020836892295    9.18952860170257
C         5.10896833514394    4.37884668558891    9.08882963443466
C         3.74200990920056    4.19029854410101    8.60858439882501
C         6.72509266231367    2.52741033053588    6.54446488085033
C         6.28203078485374    3.79357965150633    5.81296670148370
H         5.22400538696126    3.74491242879860    5.56616914143485
H         6.85102728759450    3.90417809026430    4.89222987067353
H         6.44781125363135    4.67175315028197    6.43131746238831
C         6.52881042440691    1.31092964918979    5.63517726285464
H         6.68085133217957    0.39698285175725    6.20170048570558
H         7.25171970350289    1.34102120061440    4.82256142503669
H         5.53412476388530    1.30017379700796    5.19805839321045
C         8.21048538601460    2.63053422908711    6.89983027468816
H         8.42812327847400    3.56300663445801    7.41249283548661
H         8.80877478914686    2.59790552056084    5.99161242396020
H         8.49618686031562    1.79838711890239    7.53651556664688
C         2.16943802291336    3.25027685348557   12.24847472175019
C         2.03703403435187    4.57049038318502   11.76613653234782
C         0.74921545419523    5.06465466726449   11.50545675432123
C        -0.24281283888223    2.97403749630694   12.25294965918662
C        -0.35763063514021    4.26427568755527   11.76123768043825
H        -1.32866588963413    4.68235538856710   11.54566945235172
C         1.04481095386178    2.48764734976187   12.47629452602497
H         1.18570955033545    1.47884665574411   12.83645343311430
C        -1.44016102778232    2.07762243158527   12.52889304183487
C        -2.77520702174124    2.76984692469190   12.24196427310958
H        -3.59350494293085    2.08862244638432   12.46764820105311
H        -2.85112263785718    3.05144819723921   11.19455460528288
H        -2.89562934689942    3.65674112873125   12.85971070219215
C        -1.42940624157133    1.65899386559236   14.00577621683341
H        -2.28218450748976    1.01853771687482   14.22236675845118
H        -1.48553560125592    2.53770851584005   14.64489382479835
H        -0.52294173321380    1.11514650683251   14.25524589926517
C        -1.34683283752849    0.83250212478926   11.63583851791589
H        -0.44873541494484    0.26056438434009   11.85051638109124
H        -1.32054575722963    1.12557606056123   10.58875920128904
H        -2.20881024901697    0.18766954161533   11.79564694089568
C         1.97714906092416    2.80270030734107    7.39194034773406
C         1.80586100755662    1.55562297505799    6.51968235783655
H         2.40464833816220    1.62543734444765    5.61433186955909
H         0.76172835364436    1.46267927118759    6.22782395166056
H         2.08337891674923    0.65463281808387    7.06150402984299
C         1.49825565535584    4.02227044838434    6.59344753560665
H         1.56345683799652    4.92689985752621    7.19023527712982
H         0.46309297732617    3.88321032631902    6.28715951276392
H         2.10737880039426    4.15450801950293    5.70107855973104
C         1.11929485985111    2.63880602423760    8.65305393726884
H         1.45558028785312    1.78361824771768    9.23614841402157
H         0.07741589064849    2.48292627827457    8.37999944543512
H         1.18167421456091    3.52256259052782    9.27995984312287
C         3.55318997830646    2.71892923419745   12.48031364548878
H         3.57425285034280    1.63424114070008   12.40239623006425
H         3.91103859969285    3.00167674839599   13.47136280166390
H         4.23601237411694    3.14841721922326   11.74686124169546
C         3.29085789353049    8.59165397832600   12.18655905512152
H         3.27633649538896    9.43731279348074   11.49567020292682
H         3.45658298592390    8.98956996812960   13.19920829691640
C         1.92211242474642    7.89555133968303   12.15118060959910
H         1.91832840420740    7.05832020911002   12.85244924170416
H         1.14975851534773    8.61487124191760   12.47272747227431
C         4.91790944279153    6.99954390800343   12.96645843583995
H         5.34595391012636    7.70275571817329   13.69466191982464
H         5.68555041647746    6.29924173480527   12.64513059349791
H         4.11966243600137    6.43377812856462   13.43949414954690
C         5.49984864241702    8.50432330735647   11.23457804302284
H         5.86687399482252    9.24673540106597   11.95686980579896
H         5.16326647569416    9.00793946269850   10.33063325945596
H         6.31211749202679    7.83276562628423   10.96546716930143
C         0.50418777816086    6.40538935629993   10.85181344037959
H         0.24249963238276    6.21311899139056    9.80332852838021
H        -0.37322042316030    6.87634888157570   11.33220112972661
C         1.20996820970578    8.45646624394094    9.90246221676608
H         0.15834706483692    8.73235725065841   10.08040948303391
H         1.82909411132632    9.33211126703595   10.11602067396139
C         5.76332261040451    0.82093388079256    9.68801145924540
H         5.97122859171137    1.57774709176239   10.45249383963893
H         6.19405803544303   -0.13166458165240    9.99373104246317
H         4.67651478285501    0.71759093105529    9.58871266818069

