58
CSD_code = NEFQUM | q = 0 | S = 0 | Stoichiometry = C19H31ClN3O2PRu | MND = 6
P         0.80258799573811    2.02273681194262    0.98845558104311
N         2.19568879687136    2.65285545134445   -1.38220282802529
Cl        4.26984262741744    2.51944527064426    0.55197651237474
C         3.00792118878885    3.93823462010486   -3.24326073250596
H         3.66354402246417    3.99316816953749   -4.09576921513329
C         2.99712660720426    2.79138502755367   -2.45622311067426
C         1.44419720584859    3.68799389022626   -0.99235475506933
C         1.40276329861792    4.87183410870315   -1.73240211742699
H         0.78070136811714    5.68904293993007   -1.40106635744745
C         2.18116008854162    4.98541757075687   -2.87366652673887
H         2.15755682834925    5.89466642138532   -3.45385295491983
N         0.74844915146258    3.51905724669973    0.17452170632100
H         0.14910264383519    4.27473566394001    0.48009761864791
C        -0.95342257173049    1.36856797932980    0.61721416497180
C        -1.14112879733517    1.50777631251135   -0.89689013351457
H        -1.25615592379897    2.55041254898831   -1.19045799036789
H        -2.03605716489734    0.97115958159745   -1.20734463707432
H        -0.29026313996633    1.08382994986008   -1.42813797660710
C        -2.10489170244767    2.10841015692994    1.29506988551375
H        -2.09025510527536    3.17121514878439    1.05884407323386
H        -2.10017841495613    1.97787849160805    2.37293072214809
H        -3.04579345968479    1.70342295922071    0.92210502230151
C        -0.98553361858156   -0.11297180556096    0.98876989414535
H        -1.02467826863033   -0.25585387609046    2.06430011178295
H        -0.09338153770092   -0.60767811280463    0.60434863067097
H        -1.86251408776147   -0.58918859280572    0.55306316408931
C         0.89097189857413    2.57921860194764    2.79666792824919
C         0.47660339390127    1.39638687300710    3.67074053954018
H         0.94543714253945    0.48446250516980    3.29666366182474
H        -0.60130177624612    1.25922917002379    3.69374827224052
H         0.81480073545683    1.55703491911690    4.69362303637743
C         0.09777968289230    3.84081782615699    3.13658991736670
H         0.51334384105873    4.70733117624628    2.62536229576967
H         0.18651018750953    4.02398739882538    4.20707834825090
H        -0.95796162189452    3.75972522091849    2.90266938087711
C         2.36786811236341    2.86711808000092    3.06182118512767
H         2.74880906501386    3.63607536053257    2.39204890878778
H         2.96725187570650    1.96960105240480    2.91186877360066
H         2.50554308222501    3.20635289917414    4.08781940315530
N         3.83727583557664    0.71390126885336   -1.72327545333916
O         4.73374977890385    1.50571095830644   -3.62298750609072
C         3.86377790514996    1.65088051632314   -2.60850331825488
C         4.84274300768647   -0.28315994029886   -2.05873373318284
C         5.43060942673734    0.28386362062935   -3.38126369876518
H         5.26327435886697   -0.38151075903996   -4.23306828083581
H         6.49785642636649    0.50629652032815   -3.30048328018226
C         4.17514436244082   -1.64420374340324   -2.25119126547237
H         3.44343104549045   -1.60034390060316   -3.05558484489127
H         3.65884945019095   -1.92295786178329   -1.33431322700164
H         4.92304214238669   -2.39718328369175   -2.48615173910872
C         5.89278104308486   -0.34091046037561   -0.94880925134092
H         5.43724866041816   -0.70107127720190   -0.02911079400424
H         6.29609450309614    0.65195605815028   -0.75832959412450
H         6.70063592741519   -1.01130272768643   -1.23261940329613
O         3.30624547462563   -1.12035017755238    1.68011775073718
C         3.00288405544626   -0.29474651885579    0.93439001508037
H         1.54418642797311    0.14047659790337   -0.90699109800720
Ru        2.52972651855239    1.07116009213816   -0.20976068082527

