49
CSD_code = NEFSIC | q = 1 | S = 0 | Stoichiometry = C24H21FeNOP(1+) | MND = 8
Fe        4.89871079636490   10.59941975629830   14.49825531577975
C         5.73327703263437   12.20483075310171   13.30356064060212
H         6.11545029968958   12.22917347403490   12.29751210110931
P         3.74368242042799    9.44003775869279   13.06473878920207
C         6.52610520782886   12.09914746960081   14.46686584159825
H         7.58854254560980   11.92134377683084   14.48825258186899
C         5.70357212711651   12.32097920092980   15.58917637252232
H         6.03277043392024   12.39436942746374   16.61183714555301
C         4.39494399268008   12.61699556702718   15.11774313241304
H         3.56715364157328   12.94239178467181   15.72454047622970
C         4.41610775655550   12.55796222137344   13.71017035380971
H         3.60131227956152   12.82586079507317   13.05801362021840
C         4.07327947434133    9.85984618100073   15.85379745562306
O         3.54294642016515    9.44539385747875   16.77347026436302
N         6.17178854312695    9.10508258922850   14.35914763830113
C         7.07084028053843    8.90991476651976   15.32536860025716
H         7.01699714199214    9.58969209088918   16.16258331593033
C         8.01068025505541    7.89973294206238   15.28403850843270
H         8.71560914326338    7.78483254781488   16.09046286076740
C         8.01777755872387    7.04128009949920   14.19350936245381
H         8.73218752545553    6.23639340597305   14.12697721904257
C         7.08361502342063    7.23912539494471   13.19182144385686
H         7.05738250810080    6.59577420251379   12.32631125583754
C         6.17345761574361    8.28314712888807   13.29882774288216
C         5.15536642714749    8.56308944423853   12.24086946169778
H         4.84952492306145    7.66869465704053   11.69300235138908
H         5.57021093941320    9.27257465505386   11.51587406935173
C         2.72631999865868    8.14202032608599   13.81722812992991
C         1.56045207720221    8.58225269690514   14.44799598524484
H         1.30933639289394    9.63511016241868   14.40796362418405
C         0.74670319341288    7.68742238151386   15.11340849185083
H        -0.15596254132140    8.03144520297548   15.59399787267338
C         1.09845008993659    6.34666100619859   15.16898116666005
H         0.46654790410349    5.64530485742286   15.69098166436832
C         2.26413934802138    5.90862001101809   14.56387716962642
H         2.54082111387747    4.86672904754834   14.61670492171295
C         3.08337950963164    6.80072931311240   13.89171138539020
H         3.99466125975416    6.44433625014471   13.43413670503188
C         2.78441307770860   10.01437768863392   11.62965448919738
C         3.35130698675043   10.99111653771465   10.81253318420097
H         4.32247097879590   11.39677278335194   11.05614109986924
C         2.67776340692229   11.43998190278300    9.69301058968678
H         3.12255633018574   12.19537245002677    9.06329618875138
C         1.42999231387855   10.92142615439875    9.38218407016641
H         0.90155454305476   11.27492377763964    8.51070166803257
C         0.86348323846558    9.94996035539202   10.19037335250965
H        -0.10511648544114    9.54144377562814    9.94685172420683
C         1.53258000950491    9.49544791548256   11.31374274368451
H         1.08505494049114    8.73505945536045   11.93589585192773

