78
CSD_code = NEFSOG | q = 0 | S = 0 | Stoichiometry = C20H37B18CoS2 | MND = 10
Co        6.58419389502831    3.42685794498848    2.92057776450411
S         8.00686930059627    5.72037349123487    1.88467885642437
S         4.44574337765286    1.14031754466683    2.02785571369622
C         4.46257744894558    3.70067004303893    3.50059367715906
C         4.57212589070702    2.96099263419313    2.11604256020084
B         5.39955271180352    5.07137308425250    3.50552227869526
B         3.67452999201977    5.26884945900885    3.26590909662940
B         3.13654103066867    3.88276766173752    2.37070886640509
B         5.63642610710831    3.71626671820640    1.10267045780016
B         6.17598330961006    5.13854696774784    1.97145801469313
B         4.79495479496415    6.19608142578889    2.25153939514944
B         3.37900822288336    5.42416424915353    1.52595160378064
B         3.91045280433118    3.91240302291636    0.80956125833624
B         4.97027471127430    5.33463675257253    0.71198057923002
C         8.41454002061617    4.22403390792092    2.83453155513357
B         8.27840883037927    2.86514465308359    1.86379703327998
B         7.85163269369343    3.90095521322501    4.39704295338223
B         9.59810909269064    4.06629466283040    4.02759556083100
B         9.86783812038369    3.39657832002029    2.45073637291808
B         7.64609063549309    1.59800957411518    2.88332801982141
B         7.39730666887463    2.24480671329081    4.44443058283556
C         8.98031449547705    2.79356011688811    5.00124336463540
B        10.22999677454891    2.42926974608353    3.86322507479479
B         9.40092025596617    1.67502671213831    2.50682634906589
B         8.88207331360057    1.32602672275638    4.15975531841047
C         4.09315184417042    2.98436768008359    4.75486547916683
C         3.22828346744751    1.88917869586600    4.77854497370767
C         2.88501596595269    1.26234434703424    5.96222585322421
C         3.37523982104184    1.71993229978374    7.17093380673822
C         4.20789058834613    2.82522118008372    7.17497359335852
C         4.55875616598677    3.44197256462160    5.99009750582318
C         2.93090351233488    0.80688233560502    1.03108275609639
C         2.46802856951552   -0.61035226335448    1.31861001712697
C         9.26433507851475    2.84753541180436    6.45998340335215
C         8.23063476631860    2.88655361430722    7.39633833663928
C         8.49247346841877    2.94778432040149    8.75258581969557
C         9.79590448162928    2.97889866005956    9.21585683838032
C        10.83385022667801    2.95481000435868    8.30127020950263
C        10.57104235157523    2.89426360964338    6.94496267003623
C         8.09384237253933    7.09956924397658    3.10032296832409
C         9.43647771912300    7.80063200521972    2.99843718431905
H         5.75260435026392    5.57187734668232    4.50719860105098
H         3.01706532620601    5.68003820089445    4.14886322926696
H         2.12690738888840    3.33615770644140    2.61215578556136
H         6.12642743208985    3.08059297195512    0.24948380812388
H         4.90493611288403    7.36556471123563    2.36952472181831
H         2.46236723194775    6.02588577641633    1.10098033966216
H         3.42752265019514    3.35903460034644   -0.10606358480931
H         5.19427011608069    5.86347632120002   -0.31644880260977
H         8.20281733488293    3.00986203920853    0.70253593173459
H         7.57044586238556    4.73397449375126    5.17579028462985
H        10.15103275643607    4.98027261512478    4.51596939615955
H        10.61456202646164    3.90952593243595    1.70171624859606
H         7.03549590605651    0.68585032618619    2.46552590404832
H         6.67323068343636    1.81501068014273    5.26604140221188
H        11.31344049123129    2.16107189469306    4.22669357966847
H         9.91945569544154    0.87737081563721    1.81686932057024
H         9.07271111466009    0.33049463458261    4.75560362094037
H         2.80221734195899    1.50791187221887    3.86812193619979
H         2.21906343137261    0.41188676078507    5.93705318266636
H         3.10538224060558    1.23103911370181    8.09502124072092
H         4.58863473374372    3.21129409078437    8.10978006165908
H         5.20634516243675    4.29928131722020    6.03228651062057
H         2.16313836187921    1.53090680174482    1.29457273012281
H         3.18895634819999    0.92177535866318   -0.02118272948006
H         3.25486652550907   -1.32176539140440    1.07853809743451
H         2.21431407854796   -0.72584036658301    2.37024404119998
H         1.59014902432464   -0.84695381597787    0.72028218801638
H         7.20585698127074    2.86611010653557    7.06499396966171
H         7.67010207059033    2.97236384280349    9.45287268664567
H        10.00073643152946    3.02522408396064   10.27507349961320
H        11.85798048868270    2.98582552591412    8.64432568124660
H        11.39975929341095    2.88633694333541    6.25545743189645
H         7.27794327149649    7.77628787964275    2.85456623138482
H         7.93307471154390    6.69507121327425    4.09513437158702
H        10.24968895106090    7.11144272905618    3.21304015711979
H         9.58374999873007    8.20451362475759    1.99941699339668
H         9.48725317465727    8.62202619127256    3.71010820837010

