49
CSD_code = NEFSOI | q = 1 | S = 0 | Stoichiometry = C24H21FeNOP(1+) | MND = 8
Fe       -3.28189045436352    0.13342449258361   13.10870094407864
P        -2.15985439332721    1.32715498382089   14.53847093324594
C        -4.02562077673165   -1.62098786645630   12.03027332944755
H        -4.33381288940627   -1.71669572664128   11.00293142869534
C        -4.87300512286345   -1.40020942909337   13.13369991810223
H        -5.93869887024753   -1.24768407345431   13.09085691019984
C        -4.09898015263943   -1.46933028073309   14.31293497824975
H        -4.49851272890081   -1.48702114056589   15.31238498000143
C        -2.76745766817071   -1.79886929497034   13.93574066271324
H        -1.95879467927079   -2.03657912628944   14.60703254515814
C        -2.71880083583958   -1.87766530498205   12.52968948359340
H        -1.87298666129133   -2.19340091378511   11.94300304656623
N        -4.58545418278731    1.60062829762301   13.22695523403925
C        -5.48285510844878    1.76706099712005   12.25384087317448
H        -5.41093930601914    1.07899059313169   11.42473812534909
C        -6.44295509407749    2.75851719504313   12.27896722606994
H        -7.14620035344500    2.84981253339821   11.46805762970780
C        -6.47260940445635    3.62914036432945   13.35947749097246
H        -7.20336726337637    4.42019416780709   13.41329107416376
C        -5.54004082372278    3.46130812674999   14.36813674279122
H        -5.53118947750826    4.11508022941214   15.22617770156452
C        -4.60918272483777    2.43411989585184   14.27801369457004
C        -3.59323466784039    2.18405615561225   15.34548760458044
H        -4.00021253612003    1.47280609871772   16.07316552699912
H        -3.30977308510977    3.08863755935592   15.88849314840768
C        -1.15650511158829    2.63591325821099   13.78614542578309
C         0.00638141721636    2.20470183039339   13.14352445347953
H         0.26055056614936    1.15210724026388   13.17245359167800
C         0.81204105106140    3.10743694794609   12.47886340978656
H         1.71229439128738    2.77032791297213   11.98879340574861
C         0.45510500197744    4.44735659997816   12.43630846490685
H         1.08054206456379    5.15498066459589   11.91491248275719
C        -0.70736738191527    4.87666019191158   13.05388083956493
H        -0.98808167554533    5.91798826217122   13.01119418102571
C        -1.51842430364636    3.97658646732549   13.72544073006176
H        -2.42708536892145    4.32650662609929   14.19298998936206
C        -1.20256705383730    0.77026381043656   15.98151475393723
C         0.06216885838253    1.26979933267631   16.27670298834136
H         0.51889272883390    2.00938566068424   15.63634995698847
C         0.73242963506469    0.82326954183414   17.40272990061156
H         1.71116964966733    1.21684581786589   17.62996365558720
C         0.15415655151664   -0.12114036289114   18.23428115245670
H         0.68286448647730   -0.46777605804182   19.10840001198996
C        -1.10599389120141   -0.62149275886158   17.94345877500555
H        -1.55989028540193   -1.35592085560498   18.59131902297729
C        -1.78017293271764   -0.18127080224121   16.82100459464024
H        -2.76015003552434   -0.57487601911783   16.59246609555321
C        -2.46882504639682    0.87815550511056   11.74887535646374
O        -1.94850405470034    1.29610265269744   10.82510552885057

