49
CSD_code = NEFSUO | q = 1 | S = 0 | Stoichiometry = C24H21FeNOP(1+) | MND = 8
Fe        7.50771768743896    0.22294696439947    6.00485089851717
P         8.66316117019208    1.37418595309677    7.44605473153018
C         6.69914612660990   -1.41203077573564    7.17808833820304
H         6.32463285865794   -1.45885803397838    8.18629234882852
C         5.89547319740455   -1.29425914594828    6.02350428540959
H         4.83146788738355   -1.12493749155856    6.01438624991031
C         6.71070401388808   -1.48763955887008    4.89047785491505
H         6.37394501462029   -1.54565353237198    3.86929588442806
C         8.02615618780721   -1.77871811070963    5.34574753596505
H         8.85250221259381   -2.08320439811794    4.72627691423799
C         8.01647474285321   -1.74450516200300    6.75431358600407
H         8.83984536779327   -2.01585651540042    7.39412287892420
C         7.24947611297310    2.23011983743330    8.28860941014356
H         6.84647029313230    1.50791991650017    9.00786485525387
H         7.55167622905856    3.12051234440263    8.84502844861066
C         6.22070439291737    2.51305290360767    7.24213498967741
C         5.30365820839926    3.54909410700133    7.36720859524314
H         5.33373858354965    4.18529247333718    8.23788685946580
C         4.35819165684560    3.74832226982478    6.37646457717281
H         3.63809587034173    4.54687436330241    6.45667557900581
C         4.36099697470198    2.89914823413802    5.27857772348253
H         3.64680364410296    3.01471935366549    4.48045413231244
C         5.30914758090814    1.89763190169803    5.21855162828972
H         5.36055581870725    1.22565692773352    4.37487872880123
N         6.21945736396878    1.70145316999083    6.17391250091329
C         8.31709433381793    0.99214568142646    4.65594581599672
O         8.83740238273799    1.42513966892394    3.73923540677345
C         9.66438442111370    2.69016713193792    6.70311902923640
C        10.84356528383294    2.27382919016881    6.08106200539543
H        11.11566794532762    1.22629587549302    6.12247286001645
C        11.64465095376970    3.18576517872007    5.42326271784487
H        12.55852680541965    2.86066356177527    4.95064881094643
C        11.26626083213590    4.51916351640617    5.36547354294358
H        11.88843032427078    5.23351263424171    4.84933118329162
C        10.08664111871377    4.93304889361953    5.96070056047802
H         9.78898913998664    5.96903464190439    5.90520963595147
C         9.28047974373523    4.02399689217538    6.62591929649458
H         8.35840496406625    4.36119927629181    7.07656406374429
C         9.63328395835024    0.79769082613342    8.87333680460110
C         9.09130903770926   -0.21155391419040    9.66732365393802
H         8.13563890441100   -0.64259520119425    9.40677330760326
C         9.76953075297869   -0.65928728282163   10.78467459305522
H         9.34415733084342   -1.44064661332727   11.39590150237439
C        10.99659040626569   -0.10558471955755   11.11681898441002
H        11.52854129339585   -0.45748002603065   11.98690674090185
C        11.53776176915215    0.89915372162198   10.33215683022139
H        12.48977814493179    1.33503001382239   10.59329593281195
C        10.86420596555704    1.35215977988040    9.21070013302210
H        11.29200499062774    2.13848327714182    8.60710705270202

