103
CSD_code = NEFVEB | q = 0 | S = 0 | Stoichiometry = C42H54N2O2OsS2 | MND = 6
Os       12.13211349850482    7.83560201028178    7.22060892245849
S        10.29636493878052    8.40082378988564    5.69766790032367
S        10.66957954702682    6.12550153933898    8.19261724726980
C        10.30655339958842    9.96096876934853    7.99345975913805
O        13.41123832735537    7.81192413192749    8.78469155260630
N        12.95028274667984    6.30753657290325    6.35862777787243
O        13.52047207931052    8.78495586149289    6.10483856833754
C        14.52259886294057    7.96827987459046    5.89858964998261
C        11.89929722047368    2.98067113931494    5.13762150919444
H        12.16882712778832    2.24546026340460    4.39358874383378
C        15.71580670952950    8.42649515990730   10.44055854192649
N        11.55509301519630    9.44338414016935    8.13113345245484
C        16.77998149034665    7.41674307441475    5.34529075797321
H        17.77490359203995    7.72542375648969    5.07494205484275
C        10.81510043535525    2.74719838978484    5.97310595827596
H        10.25098926905503    1.83142760735571    5.89352325106943
C        10.44664896713288    3.71327333641068    6.89416732402403
H         9.58860712689285    3.56857973059468    7.53322890957360
C        15.80995642892303    8.38772630797209    5.49726363218845
C        14.75663899409251   10.78829371800261   10.34867809774775
H        15.59910731755932   11.10970074849749   10.93232814572301
C        15.28137939573878    5.63344686380714    5.87678195776474
H        15.06127452416780    4.59836038253492    6.07932774136032
C        16.84305527516478    9.03902834761635   11.27695964434628
H        16.45885010728643    9.48740681679898   12.19043719650381
H        17.38841086510027    9.79068743523271   10.71092746957432
H        17.54529649845498    8.25607869089410   11.55720700181801
C        12.30494011850665    5.12431505840757    6.18556537842625
C        11.17648327187586    4.87924662828863    6.99745848447790
C        14.25782380345780    6.56842404545515    6.02783867701927
C        12.57991540163957    9.99559423822489    8.86171251635710
C        13.81935737569181   11.74617400904481    9.95674997357728
C        16.55723591793298    6.04999630728877    5.55461962523641
C        13.59226334906450    9.04116038837087    9.19921563429171
C        12.63149911149454    4.14372833994566    5.23276128008491
H        13.44122543856090    4.33642162520409    4.54600093841848
C        14.67773574113281    9.45071632144052   10.00097302185466
C        17.72927055438703    5.08775595283249    5.43143193168760
C        16.07943244556784    9.86809104510901    5.26431885188928
C        16.34449707292617    7.75607124775166    9.21188811188688
H        16.88395652011893    8.48552620246384    8.61259499158642
H        15.58149518983861    7.30240610841030    8.58737283762043
H        17.04386310519917    6.98276492992894    9.52484105674671
C         9.56143237646482    9.55767002934148    6.86416101897362
C         9.67125048154299   10.82438376129337    8.90311628885129
H        10.18557868856216   11.08829476546826    9.81441205492765
C         8.28197234869783   10.01955809178283    6.63523266817135
H         7.74737794371218    9.68279367098385    5.75979240339244
C         8.39390214298604   11.28288399732248    8.66616324766246
H         7.92680716185226   11.94146385930001    9.38385439265883
C        12.72140175131547   11.33123475338223    9.22325131707117
H        11.99169451989648   12.04263884750857    8.86754768679977
C        15.00598940975091    7.36633698478976   11.29490671700975
H        14.55159691714779    7.82780839844918   12.16989477958700
H        15.71489361065581    6.61074972579371   11.62815603466462
H        14.22804092812374    6.88182823999328   10.71353763023176
C        15.77242626196135   10.66382270390687    6.53984870381337
H        15.90629426492391   11.72863552824254    6.35733101850015
H        16.43867445106560   10.36527192716297    7.34582515696658
H        14.75078522525483   10.49335909058163    6.86433861869833
C        17.52910431634983   10.15320027993266    4.86114431799053
H        17.65315522877835   11.22348195198463    4.70695171767466
H        17.78705777078676    9.64865927040102    3.93253326440947
H        18.22174135857561    9.84496190255692    5.64113732712736
C        15.16252753799929   10.34607371735589    4.12922789762223
H        15.32175315418384   11.40476141758953    3.93369730230252
H        14.12332032046923   10.19513709258312    4.40341635203399
H        15.36751566535768    9.78844999229451    3.21700997591591
C        18.31210662478499    5.17340626330036    4.01368590717334
H        19.14226892531391    4.47802065105839    3.90633293295451
H        18.67604634250085    6.17291024737253    3.79391260295173
H        17.55114157347464    4.91911480136257    3.27871695478937
C        18.80151877408569    5.47485544594499    6.45964387635143
H        19.63942824966377    4.78215176572173    6.40979836276565
H        18.38343795819735    5.44371234203948    7.46329406142703
H        19.17726658367112    6.47807729091947    6.28066879753383
C        17.32681442099820    3.63312807638759    5.69066263189414
H        18.19938532558787    2.99087128249242    5.58752349766890
H        16.57847959331748    3.29982222207083    4.97536886824054
H        16.93640509273127    3.50980160652589    6.69794525205074
C        13.97222553285762   13.22480123582064   10.28546807863799
C        15.19342485918194   13.51936234281908   11.16072711674947
H        16.11455931489153   13.24236917464487   10.65412950411823
H        15.13254485964183   12.98919939615712   12.10831382236378
H        15.23688794257903   14.58586363419926   11.37415150602694
C        11.53663686598697    5.45147907179782    9.65378018994374
H        11.16945025866798    4.44662147990400    9.84043351205394
H        11.30609985963138    6.10365620863254   10.48999240557689
H        12.60481171180313    5.44925223407652    9.46150163915670
C        10.95582085507290    9.61826984923979    4.50397041567667
H        10.12865159645691   10.20678401047342    4.11809701001767
H        11.42986582513208    9.05672131234835    3.70528350200336
H        11.68425351985615   10.24749172580130    5.00558303590080
C        12.72507518231570   13.71325305297486   11.03626810553838
H        11.83050326426428   13.61336993002467   10.42811681435305
H        12.83510953919698   14.76195074115863   11.30552034631085
H        12.58610098608283   13.13570686470070   11.94792985303107
C        14.12674526971315   14.00527531831096    8.97245293521164
H        15.00109695435925   13.65189169965313    8.43059656149625
H        14.24880764373938   15.06746244812362    9.17567821832005
H        13.25737967600864   13.87649369353449    8.33384755561312
C         7.69573654595002   10.90076644190088    7.52825133429293
H         6.69789645800137   11.26925523137002    7.34974881940756

