103
CSD_code = NEFVAX | q = 0 | S = 0 | Stoichiometry = C42H54N2O2RuS2 | MND = 6
Ru        5.85744259929795    8.13536973549946    2.86550109081919
S         7.69311605545184    7.60183283608771    4.36727071888657
S         7.27787970869654    9.84147618143799    1.87670254484230
O         4.53219443889921    8.15640595278538    1.34132622458769
C         7.69238633378240    6.05376572419660    2.06634858377176
N         5.03139518904487    9.63577631843439    3.73773554965559
C         3.48292188235951    7.94743895289356    4.16555016387644
O         4.48393071923959    7.14167167806893    3.96040142089497
C         6.09205462742848   12.94544550863271    4.99048739039063
H         5.82982764387588   13.67229195263314    5.74538857966811
C         1.21889346523396    8.47363558404216    4.73045211685760
H         0.22726471038482    8.15335805427720    4.99986465568186
N         6.43339107942165    6.54675743816409    1.94983011849122
C         7.53184095296521   12.23116554094463    3.21388232585080
H         8.38485724463387   12.38156768806543    2.56964847248493
C         2.69915817839867   10.27932958960469    4.22365257069376
H         2.91207287772389   11.31966095462621    4.03971390167628
C         1.42800317017268    9.84678624257086    4.53798202692334
C         2.19648022907708    7.51391403973973    4.56952208638224
C         0.24767953002067   10.79580449807955    4.68032616354349
C         3.73155894660721    9.35433818075535    4.05498444390722
C         5.67433880144926   10.81767625735777    3.91850449904990
C         9.62206567445855    4.77708847930670    1.36108432663228
H        10.09145585088696    4.12702275448070    0.63718479883533
C         6.79663072763491   11.06959695321114    3.10063281317049
C         1.94416532873293    6.03073377847878    4.80389328311507
C         5.35313102667420   11.78717726248908    4.88417721187395
H         4.54556802263729   11.58849897073138    5.57210768919106
C         8.44662057699353    6.47727784344293    3.18172395323823
C         5.39617297653604    5.98401253183899    1.25812741571261
C         9.74172876414396    6.04962485537704    3.38758530380553
H        10.28293291143914    6.40071475033270    4.25309351507814
C         8.32831578126130    5.20079239231818    1.14755051356852
H         7.80208438162265    4.91982977434078    0.24800061819128
C         2.21277175753241    7.50910509896845   -0.27155265379539
C         4.01465780530351    2.73178731590422   -0.12507908466570
C         7.17322534340127   13.18442873681798    4.15265598489001
H         7.74228044420049   14.09638452378188    4.24248961282077
C         4.15603620724669    4.21285093072393    0.19698047406069
C         3.26568537717973    6.49790195979061    0.16278854570477
C         3.19675045458693    5.15910528254707   -0.17601797018253
H         2.34656236101775    4.82423344281584   -0.74082407703480
C         4.36258648987433    6.92756720084836    0.94555518605614
C         5.26588829042371    4.64448014609211    0.89973111097510
H         6.01669779696223    3.94562877764431    1.23662380525796
C         5.25134179882089    2.25718814553291   -0.90195981032263
H         5.36526213657411    2.83640023608526   -1.81611283028232
H         5.14696780112273    1.20749298978816   -1.16941549839840
H         6.15744069168389    2.36617269964541   -0.31252975206339
C         1.60188077077210    8.19678414685281    0.95634296696229
H         1.08072414846771    7.47493977917891    1.58069314341399
H         0.88995322481962    8.95820203088694    0.64254555008891
H         2.37230970012250    8.67017738529906    1.55736585949880
C        10.33267235170972    5.18290567635368    2.48297883971751
H        11.34342971530303    4.84149381183281    2.64175451734729
C         6.32776762133513   10.49728948869039    0.46162214185229
H         6.67611196214505   11.50412966366273    0.24919271666374
H         5.27072177404274   10.49032303907139    0.71283355023093
H         6.52022525835817    9.83954090344667   -0.38079418146868
C         1.07432373211129    6.87756145649984   -1.07804111584740
H         0.54539758108274    6.12947119430242   -0.49181681894677
H         1.44413649355300    6.42002256347937   -1.99295205590114
H         0.36119053775066    7.65183269016031   -1.35493585725630
C         7.02212962325193    6.35346101012941    5.51913135769432
H         7.84905481104208    5.77239629813395    5.91769180392698
H         6.31817643664830    5.72192815747863    4.98415536961538
H         6.51637939192007    6.89457250264534    6.31331989975389
C         2.77827723933369    2.41965484953302   -0.97252281127618
H         2.81137899062567    2.94844842327934   -1.92235646388016
H         1.86485980255149    2.68573452931600   -0.44620507792406
H         2.74406430517203    1.35223690904726   -1.18296826230151
C         2.90227581965887    8.55919874544801   -1.15500292536321
H         2.18492666322834    9.30887280246358   -1.48346917629032
H         3.33948783009901    8.08696009391382   -2.03305127823879
H         3.69147042941367    9.05429707505987   -0.59749643872600
C         2.86478485405747    5.56879336023736    5.94294723073400
H         2.64980151134040    6.12630287451210    6.85298395559630
H         3.90318162528251    5.73283107427187    5.67182527279316
H         2.72012644058023    4.50853947733037    6.14122108414685
C         0.49739329300231    5.72872970854020    5.20495279408212
H         0.23126565784766    6.23230360646969    6.13176996318439
H         0.38649859469553    4.65740005228201    5.36186268906319
H        -0.19755920040992    6.02629022089276    4.42274386481452
C        -0.83195245103742   10.40791945397172    3.66025424037851
H        -0.42530205199727   10.45241416273693    2.65241264681446
H        -1.67537222682353   11.09258425688863    3.72571290979969
H        -1.19723650891462    9.39984082004007    3.83369872441676
C        -0.31922412099428   10.69122762663550    6.10331820124740
H        -1.15580305564726   11.37641047418608    6.22550306394696
H         0.44663369058163   10.94759860399612    6.83253585159758
H        -0.66959991229023    9.68570009301968    6.31806515983812
C         0.63349776560731   12.25644513158030    4.42980699746840
H         1.01998170701718   12.39075637791875    3.42226724837127
H         1.37999752398325   12.59345296141752    5.14552256000432
H        -0.24588136798969   12.88837916192924    4.53956082622832
C         2.26426610285316    5.23311237534178    3.53304753015264
H         1.59997489382662    5.52186613363367    2.72176267235156
H         2.13965919174283    4.16781290542078    3.71934158820804
H         3.28650411840756    5.41033233701658    3.21276523270533
C         3.89953938671119    1.95301366150959    1.19304488391741
H         3.03200133548406    2.29549752159281    1.75283716791182
H         4.78069570334885    2.09601498616048    1.81254451705126
H         3.78828612211148    0.88862861206306    0.99520573549164

