76
CSD_code = NEFWUQ | q = 1 | S = 0 | Stoichiometry = C42H26ClN6Ru(1+) | MND = 6
Ru        4.48985132745459    0.69259177967537    2.63743079531735
Cl        4.68226686394203    0.60510627908743    4.97173317341294
N         4.55205352188098    2.74787269813655    2.73443971355181
N         6.37005222858835    0.88405850483910    2.74402601259006
N         5.11134462861069   -1.29796796867258    2.60672699920761
N         2.46849245648531    0.64798080171847    2.74790410480303
N         4.02630765970018    0.91030008960010    0.65473281068218
N         7.10003188776849    1.74550549143341   -0.05777119934662
C         5.83930008977389    3.14668380117456    2.89002243780185
C         6.82694769796919    2.12871276276059    2.93981967910509
C         7.15002560312553   -0.16599213570275    3.01077857686638
C         8.49983712397501    0.02825643928048    3.36141539585375
C         9.01241027231762    1.29933957074849    3.45409332354250
C         8.16382561013921    2.41015897797176    3.26737106178264
C         8.52955091629855    3.77500991898104    3.42275140829043
C         7.60679502043242    4.76743836100227    3.30777133896264
C         6.22925289483055    4.49015018531966    3.06812761567624
C         5.21443455606077    5.45983425782023    3.03120205736599
C         3.91414874229904    5.04692573398855    2.84671134197701
C         3.62222578548721    3.68761671174740    2.71673545550368
C         6.41176911286891   -1.41380911524178    2.93415900885964
C         4.37876751417572   -2.43393777351954    2.45855676455959
C         3.05781389529927   -2.36665143576545    1.97427784479880
C         2.29300500372075   -3.49520248544551    1.84661105831083
C         2.80894966996045   -4.75187222438113    2.19059777050908
C         4.10196877413063   -4.85982871299760    2.62442246769609
C         4.91644286444471   -3.71906474892684    2.75255246533358
C         6.26729436621110   -3.80093447038757    3.15259831090661
C         7.01179703342045   -2.66082868606262    3.20657486483734
C         1.85549897702890    0.98830227122262    1.58455042197556
C         2.70388710330469    1.14049273454997    0.45321168131131
C         4.84398632007743    1.04385520668079   -0.38191319910789
C         4.39245789675088    1.43006651118059   -1.64961534211769
C         3.05421314817664    1.66191992327487   -1.86588677903244
C         2.15971989212602    1.50764517097436   -0.79391165937444
C         0.75158753837541    1.70545765197951   -0.88848526691940
C        -0.05941500016404    1.54356878465318    0.18741878509051
C         0.46368128285265    1.17665626629371    1.46130283599547
C        -0.31414185854355    0.98993153134225    2.61617771796140
C         0.31882257800687    0.63580645737399    3.78720179250140
C         1.70490188362698    0.47348474361262    3.81661926670551
C         6.27713694276094    0.73472254953929   -0.16135174241775
C         8.41069779928375    1.49805739465385    0.13314439917989
C         9.29039205490604    2.59066939116547    0.27137508421744
C        10.62357268128507    2.37313722788016    0.48095330373197
C        11.13378994523951    1.06605700214329    0.55702495015491
C        10.30498412228340   -0.01290736854195    0.42179979772268
C         8.92470148338713    0.17338737171163    0.20961502708797
C         8.01024084450757   -0.89099973656079    0.07019341932917
C         6.68206821325190   -0.61810474271390   -0.11053076352081
H         9.12996178794248   -0.82100858387528    3.56839086671630
H        10.04884232728379    1.45618748387726    3.70778517074141
H         9.55965364807161    4.00681362172353    3.64662262070223
H         7.89766333159189    5.80005938478519    3.42888509571435
H         5.45637334175355    6.50340097903440    3.16095187570629
H         3.10578731630227    5.75998378993233    2.82061783002167
H         2.59321855483339    3.36680921317470    2.60669181732878
H         2.66327137847594   -1.40595319541818    1.68063103635211
H         1.28332404502598   -3.42036537551620    1.47235415102750
H         2.18801855337860   -5.62873448145847    2.09605399087143
H         4.52527637765565   -5.82254138212044    2.86822904056110
H         6.69307396066423   -4.76220071314601    3.39535173832279
H         8.05226651207321   -2.69227689431094    3.48315765992369
H         5.11416260185148    1.53694810000357   -2.44333637589772
H         2.68814795847897    1.95509140955462   -2.83732404177498
H         0.34368315496936    1.98647618469524   -1.84713306473596
H        -1.12496983289692    1.69130810189234    0.10087109580157
H        -1.38393061641259    1.12242324657700    2.57283548479182
H        -0.24404284824816    0.48035358706469    4.69322107500639
H         2.21525479538870    0.20015620906294    4.73135245078360
H         8.87858598621489    3.58526881934558    0.20415849932932
H        11.29899418172434    3.20872132642727    0.58489811911298
H        12.19105086634125    0.92108353541992    0.71844301811123
H        10.69236945554142   -1.02013703490447    0.47138217121800
H         8.37033263449611   -1.90958306502751    0.10778277766368
H         5.94898355759014   -1.40194321737924   -0.23054049263168

