109
CSD_code = NEFXOO | q = 0 | S = 0 | Stoichiometry = C33H63CoN6O3S3 | MND = 6
Co        0.00042854223167    7.82595955902788    4.30278542055123
S        -1.87697514219791    7.80178754238251    5.59713629343472
O        -0.65272559988308    6.43765608620791    3.17753940315250
N        -2.75613716250009    5.80500375790446    3.94867537513532
N        -4.14100254825959    6.47884199016556    5.58821848968262
C        -1.68391904911008    5.73132017690978    3.18177816385562
C        -1.75610149030242    4.60084762966976    2.17290060774030
H        -1.36578994687369    4.96149953163142    1.22046936681414
H        -2.80326816220902    4.32101562390399    2.06113367967825
C        -0.93692037220695    3.37074410097508    2.62156099418447
C        -1.30503874117469    2.99857826298960    4.05905298833246
H        -0.99866135936210    3.78263408344315    4.74821747561796
H        -0.81451895455340    2.07092774084475    4.34876272183246
H        -2.38041318517396    2.86712067898665    4.15558463684028
C         0.55871178273737    3.67380548271768    2.53046298260517
H         0.80699764788359    4.55464696073987    3.11609965599906
H         0.85063501561417    3.86188320499662    1.49912648797277
H         1.14063642991404    2.83399250610812    2.90559530181390
C        -1.27577044034786    2.20228410910444    1.69113680615532
H        -1.06635429487848    2.46220572737195    0.65584244491562
H        -2.32759292586700    1.93744185865659    1.77325446434925
H        -0.68134224578176    1.32899680157971    1.95129924585230
C        -2.95632858135785    6.62102164890448    4.97166183944808
C        -4.50678481272444    7.25569990426975    6.74947033985565
H        -3.59311540246413    7.49306833362304    7.29944648011886
H        -5.14473586560484    6.63540634788130    7.38542456936937
C        -5.22661823779528    8.55308719610231    6.39050413772987
H        -4.60956696691633    9.13686768859916    5.71464779579394
H        -5.40431505873133    9.13500080290169    7.29072961912795
H        -6.18238625888694    8.35011994885273    5.91386643218198
C        -5.10906631458922    5.54876497783479    5.03921746933265
H        -5.84877356021172    5.33824301424136    5.81413302150707
H        -4.58178188244866    4.62672329204349    4.78339621614947
C        -5.79516063497014    6.08759476350111    3.78661143631953
H        -5.04725059821734    6.29724433795465    3.02799241461622
H        -6.34205048002324    7.00128056778957    4.00249836799747
H        -6.49136614801191    5.34707318806421    3.40152745891301
S         0.95927422976160    6.21168439579622    5.59718552046240
O         1.52857766190891    7.95385480380697    3.17666424423693
N         3.12812562205096    6.44890523613308    3.94839785634056
N         3.23702510952337    4.91288121467662    5.58814965809161
C         2.65578305360051    7.41393572139949    3.18103172747199
C         3.67113692773524    7.91729360294490    2.17278690399118
H         3.16376922930970    8.07500767275973    1.22030195869808
H         4.43711960328308    7.15040195346801    2.06110965796542
C         4.32660403533500    9.24185730493634    2.62163915130920
C         4.83287083849660    9.10917137292170    4.05916998326735
H         4.00061659944630    8.98244335050373    4.74826585129594
H         5.39093543110623    9.99781175370810    4.34893588282218
H         5.48441731755357    8.24361250991141    4.15573758016641
C         3.31633331596928   10.38559121456512    2.53050632486784
H         2.42934155780135   10.16016155596352    3.11609203277089
H         3.00753783246687   10.54435745887028    1.49915540408362
H         3.75260388496317   11.30948239475484    2.90566671085060
C         5.50800786150210    9.53270189632211    1.69131983100824
H         5.17826686941350    9.58409898404588    0.65600244688552
H         6.26329322722038    8.75423348740084    1.77347910461620
H         5.96703225381545   10.48414709751793    1.95152513550178
C         2.52163578744398    5.86783236921703    4.97168161599758
C         2.74702644585266    4.20765092099165    6.74934135648660
H         2.08462856023405    4.88025221436247    7.29929957217490
H         3.60316053613509    3.96526334418399    7.38531512947562
C         1.98333600410331    2.93558317753524    6.39036023602683
H         1.16924845412900    3.17811269064862    5.71451108053604
H         1.56821544905545    2.49071493271529    7.29056898931306
H         2.63696932190113    2.20933725041930    5.91370277885628
C         4.52646003330285    4.53947910283687    5.03907110786704
H         5.07860623505926    4.00406673762958    5.81395508687436
H         5.06136947937593    5.45712784444489    4.78327797089383
C         4.40272596315311    3.67595952344700    3.78642734692414
H         3.84722620152000    4.21891038680420    3.02784019257183
H         3.88483975409349    2.74551869311258    4.00228536158198
H         5.39211239401580    3.44323727311179    3.40130991544056
S         0.91695845438859    9.46374655281029    5.59842570976705
O        -0.87588809700583    9.08518211078575    3.17749142553362
N        -0.37199134565481   11.22308325029912    3.94858841066724
N         0.90401526241949   12.08559170692085    5.58810597050884
C        -0.97199472712226   10.33135674717168    3.18174046766136
C        -1.91486501913729   10.95903818774774    2.17280180773357
H        -1.79763332215643   10.44068055732932    1.22037968065090
H        -1.63363836550519   12.00583277730243    2.06107049841300
C        -3.38972326082553   10.86449398912153    2.62152031804917
C        -3.52797219840616   11.36928347275695    4.05904496721548
H        -3.00211789849952   10.71190118238332    4.74816400818164
H        -4.57660029301513   11.40825602154859    4.34876626681622
H        -3.10415887850535   12.36631957802932    4.15563136058733
C        -3.87499781724765    9.41767970669467    2.53036216867019
H        -3.23625385452664    8.76224434116576    3.11594804575870
H        -3.85808186702130    9.07088299510698    1.49900704103488
H        -4.89324614501704    9.33353634335234    2.90551272323080
C        -4.23223504421102   11.74218222557517    1.69113157739089
H        -4.11182475348487   11.43092211048042    0.65581997200965
H        -3.93574278929228   12.78552081646703    1.77331470099168
H        -5.28572856583796   11.66395049280589    1.95129982599066
C         0.43473773375720   10.98855398087933    4.97169535592318
C         1.75966027468484   12.01376131473491    6.74935521659643
H         1.50831784825758   11.10372759715209    7.29918819104537
H         1.54147853355660   12.87636361895074    7.38535881403360
C         3.24317709354620   11.98842580469840    6.39047067947904
H         3.44021983300904   11.16214625181965    5.71462679878694
H         3.83596894702228   11.85136001082326    7.29070504104580
H         3.54533167630638   12.91761196161070    5.91383023623423
C         0.58269652929340   13.38896126912432    5.03899725369876
H         0.77031189259428   14.13484691940506    5.81386897055282
H        -0.47946068471626   13.39339964632670    4.78319133362507
C         1.39243551203060   13.71347296792325    3.78636698926818
H         1.19996577694601   12.96089176608201    3.02781142536377
H         2.45715774438931   13.73015869351693    4.00225703138342
H         1.09931173860341   14.68666215835107    3.40121840339568

