59
CSD_code = NEGDUZ | q = 0 | S = 0 | Stoichiometry = C27H25ClNO2PPdS | MND = 4
Pd        7.00345455298325   -1.44390488467804   14.36927283574224
Cl        7.77806879912277   -3.68216811377709   14.27962633609135
S         9.32523777615954   -0.72873472071690   17.15026636066733
P         9.20465511537767   -1.17848490176303   14.19037936294752
O         9.62670819449837   -0.48156444647370   18.53285862525637
O         7.93150352787977   -0.89547449395806   16.80454819600776
N         5.03669322814213   -1.95595521808106   14.55055211021465
C         6.29046908520115    0.42873686714098   14.36904533350996
C         6.96529897255012    1.63816193974314   14.47804387751474
H         8.04424291717510    1.67119915681252   14.40828482681386
C         6.28589530550516    2.83354924078807   14.66374930742099
H         6.84258650329335    3.75725027016712   14.74322225341415
C         4.90645583075279    2.84663840075368   14.75465804658995
H         4.37609915380463    3.77448732278356   14.91295636373747
C         4.20885855439255    1.65801320870378   14.63613752979713
H         3.12833632444665    1.65342807655466   14.69480997361294
C         4.89239104097863    0.46662253193842   14.44196346028460
C         4.15423875891543   -0.82812422070850   14.23374043829817
H         3.86769827722651   -0.89785670157704   13.17584254380963
H         3.23117522038526   -0.87911963331198   14.83290325141232
C         5.08921370218316   -2.17053195453858   15.99663627929275
H         4.10136983652207   -2.47783845599863   16.37728732538251
H         5.39464743698882   -1.24999363118099   16.50708344922282
H         5.81233771899736   -2.96117042292398   16.23051767094107
C         4.57987396326126   -3.17182766439864   13.88474216197819
H         5.25352205628715   -3.99734079721243   14.12203544954343
H         4.58529242609553   -3.02536228108162   12.80249606991221
H         3.56219200323107   -3.43356604742299   14.20601784685076
C        10.05673337404752    0.33667390570181   14.76495725645817
C        10.61456359723159    1.30801612448948   13.93853778886418
H        10.61583424734411    1.16293019296193   12.86773002706154
C        11.15330162216034    2.45910039914661   14.49043888372414
H        11.58486803035944    3.20732032426319   13.84204324514611
C        11.13702969753593    2.66275354341658   15.86214056281133
H        11.55553940820772    3.56500712110522   16.28086909752182
C        10.57428889904010    1.70698515257027   16.69489953589362
H        10.53831915992036    1.82826029659233   17.76626697344573
C        10.03522434546199    0.56846208083812   16.13585418132854
C        10.22416378976284   -2.33007420277882   15.17716382167921
C        10.92176322516556   -3.41330564670945   14.65066300493137
H        10.88911796906093   -3.60782168206959   13.58900398347322
C        11.61952237426442   -4.25852535640717   15.49581850187155
H        12.15058191098002   -5.10184021672523   15.08007323640244
C        11.63410537701781   -4.04398150691702   16.86679258416943
H        12.17647218614824   -4.71480861789452   17.51527887084784
C        10.93708296406476   -2.97351376975258   17.40263125015566
H        10.91173003269722   -2.77376559613489   18.46260381229050
C        10.24070959484832   -2.14020413709211   16.55220336566692
C         9.79440609004500   -1.39551505226630   12.49177234549222
C         8.81842824014927   -1.57605248682698   11.51681410547400
H         7.76640082537750   -1.58061445045366   11.82328018144260
C         9.18430172328771   -1.75708577304786   10.19501596522839
H         8.42883760609789   -1.90379796649134    9.43756611001408
C        10.52507113047880   -1.75272082280559    9.84487153911582
H        10.81377198930048   -1.89664033939669    8.81415897156315
C        11.50022620066884   -1.56611037001593   10.81308408005663
H        12.54394718365269   -1.56309264880752   10.53421691604288
C        11.14040222209152   -1.38737958266054   12.13639451707569
H        11.89693870116547   -1.24302734139662   12.89657799851455

