66
CSD_code = NEGFAH | q = 0 | S = 0 | Stoichiometry = C28H25F3NO5PPdS2 | MND = 4
Pd       -3.72409449707660    3.48095555226306   17.09655672416291
P        -2.52345810004032    2.45329810304423   15.49507812279455
S        -5.15738891296872    0.81495542698826   15.36287953025947
S        -3.94949543529765    5.32219030106898   15.41240199998638
N        -5.01427918566677    4.15630110439575   18.68050183051069
F        -5.73410681044062    7.04968557810175   14.41325785448134
F        -3.70152158475420    7.57084299867924   13.91591520383131
F        -4.66401049808237    5.92134106876559   12.91608704463822
O        -5.52470964170570    1.66000827689222   16.47695899060205
O        -6.15165383444733   -0.14736143697796   14.96658711503559
O        -3.90136384313478    6.11543780614584   16.61206128761110
O        -4.99571992683752    4.32713755328214   15.34967904684501
O        -2.66745054076575    4.90550837223396   14.87918639699074
C        -0.79917525125607    2.85559677451756   15.11677488366828
C        -0.18009278432721    3.81839128866605   15.90634331476245
H        -0.76088167826714    4.30393010670701   16.68669779304695
C         1.13923491368520    4.15877205175560   15.66738886449437
H         1.62382635201719    4.90947940107202   16.27351020300478
C         1.83885071244365    3.53919492641672   14.64303541287635
H         2.86737784493698    3.80836573061822   14.45286319521627
C         1.22256631189307    2.57762324885997   13.85764030144379
H         1.77114135897372    2.09914676565331   13.05951307326735
C        -0.09662086419953    2.23057466381310   14.09286222235674
H        -0.58304699426284    1.47735011398544   13.48737331258532
C        -3.43076941929244    2.38870848341745   13.92149866839861
C        -3.02228785255323    3.05459850403456   12.77003277441456
H        -2.08480510725729    3.58901946413100   12.77469979228669
C        -3.83574311435649    3.06243559416854   11.64974443895269
H        -3.51633239573247    3.59245930082543   10.76530779150785
C        -5.06013238963035    2.41199172519080   11.66030528816095
H        -5.69467859377827    2.43505078355872   10.78774199651450
C        -5.47177022081145    1.73818718574610   12.79896700538411
H        -6.41301071615952    1.21297561078934   12.84621743822354
C        -4.66000998140806    1.74212596483677   13.91442564938321
C        -2.45311585655211    0.63996297389927   15.79200066441155
C        -1.28956696181602   -0.05632902477173   16.10877352958624
H        -0.34184253342655    0.46121194943477   16.11593601425038
C        -1.33824710534245   -1.40816690239641   16.40492444496482
H        -0.42656180594628   -1.93267456643541   16.64936902385588
C        -2.54362433360736   -2.09181926152345   16.38848267276901
H        -2.57539471995778   -3.14500207586379   16.62087040734654
C        -3.70940457707486   -1.41408637052170   16.06971748821810
H        -4.66766128488782   -1.90803129795869   16.03292341524567
C        -3.65096235439660   -0.06438132534457   15.78854529493737
C        -2.90147359431042    2.49416394429446   18.59610900050549
C        -1.62001096129891    1.98116628398958   18.71889903510416
H        -0.89675569720384    2.11372776062035   17.92253962325525
C        -1.23795360155874    1.29314402210162   19.86373645525167
H        -0.23526631134656    0.89802005638855   19.94066905535384
C        -2.13331047612946    1.11276346967454   20.90116015886737
H        -1.83648613686797    0.57549474583639   21.78955158255210
C        -3.41290462989985    1.63473854264415   20.80138244099948
H        -4.11463803592416    1.50843576610898   21.61395225578081
C        -3.79528946390726    2.31851561276496   19.65859446401862
C        -5.16038268182060    2.92175949247306   19.47414081006696
H        -5.65749211345774    3.13113403060836   20.43457552264334
H        -5.77603272245208    2.22131524239350   18.89584995884363
C        -6.30213622189542    4.56794932467204   18.12972230371550
H        -7.03481592871183    4.73061823845572   18.93338518969491
H        -6.66702263876217    3.79437849989921   17.44817421894712
H        -6.17528815086065    5.49501171427753   17.56825341281545
C        -4.45251618127393    5.22427397469688   19.50673281741059
H        -4.23300574183101    6.08723555817842   18.87715904986068
H        -3.52686877727475    4.88093213742015   19.97309062157320
H        -5.16286616263127    5.51688055372597   20.29316906387917
C        -4.53608955700778    6.54217853665425   14.09811543557399

