47
CSD_code = NEGLIW | q = 1 | S = 0 | Stoichiometry = C15H23N4O3PRe(1+) | MND = 6
Re        6.15936362896967   -0.54234288699760    7.44044408401769
P         7.34086613189477    1.26249566437238    8.70857036700515
N         4.00870411002590   -1.99346220752452   10.98579770164850
N         4.30995992124279    1.10213675551932    5.38542984304146
O         8.16796227191761   -2.54311285071384    8.69601449318647
N         3.81254999542184    1.70850038464624    7.38029313990014
N         4.74703150928703   -1.10691198992547    9.11602343269678
O         4.82122208714282   -2.89797445422809    5.94406192012188
C         7.43791099615774   -1.80611317616894    8.22074227140683
C         7.11131666793875    2.98018043861707    8.12145695592912
H         7.28491850562419    3.00420880820671    7.04596155094266
H         7.82876545148458    3.63356233218463    8.61730452809240
H         6.10317925748999    3.33409004174112    8.32246786326398
C         4.63245809599580    0.88869015205830    6.68191715813256
C         2.99870080285076    2.41547484458177    6.53777718157156
H         2.27368164327025    3.11639351902293    6.89579218469010
C         7.38374004074779   -0.12682204958738    5.98459122322561
C         2.94967905375803   -1.92641873394504   10.13208655457319
H         1.97300455736900   -2.27046672320031   10.40121315031787
C         5.30226061191309   -2.00563505368413    6.47222478637648
C         5.06860960289571   -1.49336441956893   10.33661792622646
H         6.04922911781607   -1.43302681899175   10.76848569922811
C         3.41705291533901   -1.37728463850928    8.97571272584641
H         2.88831540473631   -1.17517495730223    8.06455809344390
C         4.90040018375181    0.50145979018775    4.21614303722444
H         5.76224331734272    1.08131492792193    3.88062204132146
H         4.16195113126074    0.47941163863779    3.41634540122440
H         5.22448880245519   -0.51658703025505    4.42891521914760
C         3.31658941197796    2.03417108599223    5.28095103976146
H         2.91878816819192    2.34874206425935    4.33865461480848
C         3.98353263069533   -2.53029705190531   12.31832988458303
H         3.74351053176293   -3.59487121293312   12.29111627791011
H         3.22821900055639   -2.01865285867937   12.91716655530192
H         4.95871070307767   -2.39983225361381   12.78399668682262
C         3.72351962296885    1.86066633770260    8.80737285332865
H         4.58452137806013    1.39274100748488    9.28102722091964
H         2.81234219838583    1.39068834273073    9.18544973485874
H         3.69718883101852    2.92036038737148    9.06604809292921
C         7.21741888825486    1.44597880955439   10.52991041225083
H         6.19004000933500    1.59463192147821   10.85697622958160
H         7.81717352162162    2.30147100518054   10.84037197816561
H         7.61453039024003    0.54855336348807   11.00247571146330
C         9.15271048074291    1.09448745555048    8.53529742521385
H         9.42434209372220    1.14158980163682    7.48170855954816
H         9.47606530076350    0.13296838355306    8.93214526992663
H         9.65368133068044    1.89725065271001    9.07640189693891
O         8.13594969178562    0.11523145136771    5.15442902189054

