41
CSD_code = NEGREZ | q = 0 | S = 0 | Stoichiometry = C19H16ClHgNOS2 | MND = 3
Hg        0.30010914167465    7.08011989426353    7.59467600448222
S         0.72402841200686    5.43616213407133    5.41481813093173
S         0.74818851649698    4.42864727142836    8.22145479591246
N         1.25126298771445    2.95095899261385    6.10771242287899
Cl       -2.97005853939001   -0.57661753836677    2.39548297630155
O         3.62056563602772    0.85576330390664    6.56532050098317
C         0.93985054076304    4.16487303602049    6.55216276542130
C         1.41742180259272    1.81976899725729    7.01001927834511
H         1.03902529919679    0.93077992911388    6.49831354441786
H         0.83363616993952    2.00326271881176    7.91362841079853
C         2.85352304610092    1.63128182085652    7.36877629431099
C         3.61085577140265    2.15380334347835    8.37437168873046
H         3.26952137818125    2.80663772475244    9.15086210156606
C         4.92339809120255    1.65866718314728    8.17899297952732
H         5.78353648488353    1.85893050778670    8.78373000164372
C         4.86705372251402    0.87769987674445    7.06816289130304
H         5.61234249371200    0.30486279858638    6.55302067563884
C         1.52991409751550    2.65532915275193    4.71213706109803
H         2.47134646318720    2.09988013318351    4.66632057328784
H         1.64599104321042    3.59901436362381    4.17434279985629
C         0.41432960218903    1.84366921021148    4.10746069814432
C         0.60667824443988    0.51306910994143    3.76050855638364
H         1.57588490146615    0.05561861389762    3.89870292022320
C        -0.42922036898638   -0.23591448657075    3.23048677990843
H        -0.27679842314927   -1.26827214472433    2.95774993517133
C        -1.67051675802827    0.35311379839411    3.05486729562154
C        -1.88252385129318    1.67924019074883    3.39989135716817
H        -2.85347600152658    2.12621226704865    3.25627947558996
C        -0.83870544474389    2.41743153744049    3.92410916114589
H        -0.99383458101313    3.45198213291006    4.19023801289202
C         0.25388582592248    8.45414672405428    9.35303917528804
C         0.48503233210003    7.85609397927387   10.58728857443418
H         0.66236401736651    6.78692369664277   10.65882024833568
C         0.48949968890279    8.62202856152779   11.74342417847958
H         0.67094590322226    8.14775762511771   12.69673291382368
C         0.26194122140929    9.98512343788201   11.67484847746097
H         0.26487111323115   10.58126923016506   12.57545223714317
C         0.02981258939338   10.58229009700295   10.44885124152294
H        -0.14968851922632   11.64579261449050   10.38814326917908
C         0.02468204047639    9.82376432523605    9.28720565158981
H        -0.15957609108733   10.31333383526924    8.34009394306154

