129
CSD_code = NEGSID | q = 0 | S = 0 | Stoichiometry = C52H67N5O4Zn | MND = 4
Zn        3.32317201771520    2.05946945431334    6.74515798661106
O         7.90345096890217    7.16982205419155   15.79977365834910
O        10.59213214467943    6.20254621605073   14.66807512832742
O        11.09013720224633    8.64765168465949   13.44178533895030
O         9.49873105639115   10.40422314065103   11.48406664009952
N         5.14819157711105    2.50205240311214    7.52062717370659
N         2.55595950434177    3.58452899672875    7.84711886776518
N         1.49272644919576    1.61525682689366    5.97953446321384
N         4.09458566219038    0.53463158276799    5.64009261511385
N         6.59960056048247    8.33605375449861   12.54262508926641
C         6.28570361987699    1.82289985025274    7.22332325225623
C         7.40035754524395    2.38367880846954    7.93987523849899
C         6.91402333142442    3.42239761101493    8.67768267499721
C         5.48533475256935    3.48656919269106    8.40358998147769
C         4.57958262322695    4.40341267536526    8.94982666951681
C         3.20575065353340    4.44343840729429    8.68559910387783
C         2.24862877547937    5.38369738313116    9.25181295675321
C         1.03182907934681    5.05254846517285    8.73293893809918
C         1.24303509915652    3.93021813402595    7.85763040564325
C         0.22085494779355    3.32545229126645    7.14488368550403
H        -0.76834986373069    3.73641166900890    7.27908788624868
C         0.33473551832305    2.25784694901785    6.27728350639964
C        -0.76665767919603    1.67285189245837    5.54653870270646
C        -0.23962553286658    0.66209158829681    4.80069252262812
C         1.17851906646242    0.64204408835983    5.08527257275556
C         2.07833659943611   -0.24882915798854    4.52967677639754
H         1.68429205901402   -0.97545570243003    3.83680612158571
C         3.43539214816069   -0.29959562813352    4.79363200058738
C         4.35568108875454   -1.25275303813257    4.21370449083719
C         5.58107248608767   -0.97040666484536    4.73928340928762
C         5.39735540860129    0.15239420955960    5.62838524925715
C         6.40604774398183    0.74609748600786    6.36061687946566
H         7.39489402447763    0.32759223051620    6.24814475711595
C         8.79291517748331    1.86239406741467    7.83291434485686
H         9.47751744684269    2.42515712140398    8.46131700973129
H         9.14443929522254    1.92800596089490    6.80316382589479
H         8.83119141874626    0.81701293035744    8.13925193462961
C         7.73655274101719    4.28528418832735    9.57262565780001
H         8.77310655049537    3.95691084519507    9.55020255292500
H         7.38655569232398    4.23629937768079   10.60118900549142
H         7.70261299078670    5.32635870251314    9.25927410941052
C         5.12000005421932    5.41789795190080    9.88648643697810
C         5.17597681442159    5.17981029740234   11.25332408204820
H         4.82117496163076    4.23413170242173   11.63941215159599
C         5.68011007177046    6.12280717344779   12.12726257586067
H         5.70262533073143    5.87494533773298   13.17541942036794
C         6.15051537667019    7.36225498387180   11.67252221592674
C         6.09438410674230    7.58967533951653   10.29039334895668
H         6.43911085000788    8.52071871337484    9.87251968751730
C         5.58965597320811    6.64074166873297    9.42431934550373
H         5.55839101079964    6.85171283063520    8.36431398021974
C         6.67412517958527    8.08921982469311   13.96240510811045
H         6.69668210628919    9.04919731010077   14.48470007843424
H         5.77313863598869    7.56985328747604   14.29708867954180
C         7.91169517035546    7.28633495039708   14.38736523893052
H         7.90081151398122    6.28953619009760   13.92653384442937
H         8.82089416936229    7.79880191419106   14.05652504239200
C         8.85693457303710    6.26862006787137   16.29801647447595
H         8.67979135394174    5.25994165492069   15.89639571514559
H         8.70937377456910    6.26379026879991   17.38008287898284
C        10.30475712340935    6.65670620853360   15.97407095113440
H        10.40641266744668    7.74630463608872   16.04986651338208
H        10.98927672467300    6.18484907953199   16.69592920604213
C        11.87127668735291    6.49293245541369   14.17930941000364
H        11.89428431929996    6.01909724237737   13.19546384587203
H        12.64912356728745    6.04427254701157   14.81832577621518
C        12.18773477909127    7.98952406765280   14.02746447161650
H        12.41637158948916    8.44482150827249   15.00493042855148
H        13.08234759651650    8.08609298724976   13.39513365098517
C        11.39221426821197    9.95380322052253   13.00077628292530
H        12.01125044788926    9.91281523806824   12.09322653122720
H        11.95102875082425   10.49065253035396   13.78246281492653
C        10.10042356963075   10.72932618433050   12.71098801302847
H         9.41176933663687   10.57792907221850   13.55125229443435
H        10.34830484317133   11.79200003379287   12.64048711522540
C         8.70580681236255    9.22987804791962   11.48840622129115
H         9.19277372410795    8.43785533095702   12.06384789108443
H         8.65215749494786    8.91427975388705   10.44443720984133
C         7.29022687639895    9.50358564713832   12.04948687675147
H         7.38463044781038   10.20620777958720   12.88040214718164
H         6.68566933681224   10.00184039814786   11.28566232623237
C         2.48637392426091    6.50303498854340   10.20682805821571
H         1.55243729868167    7.02487126229045   10.40228834115669
H         3.19936989162029    7.22017083082043    9.80697033033540
H         2.87729462923596    6.13827583158287   11.15414933788623
C        -0.30340524048206    5.67244425491485    8.96757827811752
H        -0.24150260591467    6.49451126285761    9.67511205888307
H        -0.99932538424093    4.93381411919038    9.36526776588700
H        -0.71296609293264    6.05718364810808    8.03347788334330
C        -2.17839552601665    2.13744280697729    5.64003091892478
H        -2.83162463935885    1.50983765811271    5.03979152421616
H        -2.26694841158504    3.16377829637703    5.28335190168838
H        -2.52245264791131    2.10792733165626    6.67374092404798
C        -0.92761834788815   -0.25052842121512    3.84171364330688
H        -2.00014720798281   -0.25952326830840    4.04715426371370
H        -0.55692348729224   -1.26949823717302    3.97906153607829
C        -0.70171014501927    0.17501567304064    2.38373779763801
H         0.37086922503721    0.22393475789457    2.18418411756966
H        -1.13356834178377   -0.58036611484072    1.72181041865410
C        -1.32641462557467    1.53266508457364    2.07723750541878
H        -2.40252544107379    1.48749834828241    2.26289437690286
H        -0.90304649220902    2.28039230966612    2.75074327887340
C        -1.08456842865899    1.96151663260015    0.63244679944393
H        -1.50391013651401    1.21205790210361   -0.04359616230695
H        -0.00902940038852    2.00920681453801    0.44695611045330
C        -1.70967099873313    3.31857828559756    0.33362951453284
H        -1.52629264930228    3.60770623227331   -0.69876726733892
H        -1.28848165875641    4.08196196954677    0.98423909102727
H        -2.78526985172664    3.28736722206782    0.49515769805223
C         4.01218591232312   -2.34752692253276    3.25877299960003
H         4.82268049321362   -2.45411365780942    2.53273359086142
H         3.10576527664066   -2.09837239435864    2.70463852467455
C         3.81560492600029   -3.69121267740037    3.97613704515605
H         4.70511998176740   -3.90887771076402    4.57127070436810
H         3.71225943185786   -4.48154885918858    3.22783712302885
C         2.59046074659303   -3.69518301605629    4.88529140475861
H         1.69409360607563   -3.51681465753568    4.28580570114597
H         2.67377265125022   -2.88137645025482    5.60851526493201
C         2.43395416101378   -5.01784600203074    5.63112886721043
H         2.36018460852173   -5.83549690149238    4.90951010999772
H         3.32308355764498   -5.19471790960833    6.24076453710230
C         1.19989975177953   -5.01743622813083    6.52489165361575
H         1.10935671324683   -5.96199554024743    7.05666628193821
H         0.29943845452447   -4.86983994567430    5.93221524904547
H         1.26148754627695   -4.21441862392610    7.25612595565298
C         6.88288339445873   -1.64779815869858    4.48590142937204
H         6.78070468193721   -2.39663901162046    3.70466674581701
H         7.23847936514391   -2.14149124682821    5.39079016291589
H         7.63763359005093   -0.92459905259343    4.17784713650779

