59
CSD_code = NEGSOK | q = 0 | S = 0 | Stoichiometry = C17H33Cl3N3P2V | MND = 6
V         7.30134335898562    4.49740378046421   30.64509200372537
P         5.80617621547643    6.11076145046700   29.94238403654074
P         9.04476007747735    2.99359711908404   30.83110655719994
Cl        6.29447464978461    2.98760218862822   29.57490123925745
Cl        8.47588875014542    6.08678365533721   31.36736472914748
Cl        6.29681278403024    4.04529871972374   32.65316421648606
N         6.60620532692167    6.54166351091263   28.49247243234165
N         9.72292169652870    3.23938652117709   29.27890483555952
N         8.20483644225090    4.91073457312866   28.81321937563036
C         8.27497028764510    6.16557970560982   26.79182184182206
H         7.85396590259600    6.94077628640021   26.17168225675867
C         7.70028890847453    5.86411592637562   28.03042200083082
C         8.73616907764707    1.15707118885872   30.75968616809093
H         8.07594563687423    1.05401380602065   29.88702485912419
C         9.27414986880737    4.21311379616616   28.43082498494953
C        10.51662858484539    3.18729552283159   31.95978413166699
H        11.05904960552019    2.23511242169849   32.00298511271250
C         9.38644741999813    5.44927657505313   26.39005872857286
H         9.85093856732097    5.66139368172600   25.43900706693298
C         9.90202565120842    4.46032162015061   27.20610473897035
H        10.76681991845760    3.88663311267335   26.91326244037819
C         5.71679879582774    7.77430636455633   30.77492964728508
H         6.77104464851326    8.02630762925712   30.95370442550110
C         9.95850823527226    3.52036192282789   33.34216078844968
H        10.75500535867699    3.54772407747085   34.08443190269031
H         9.21491740843109    2.78730755063758   33.65102234553667
H         9.46862742375125    4.49326991640167   33.31945987132723
C        11.45949531569005    4.28250830179656   31.47160191550675
H        10.90761979999703    5.20411751934178   31.29156598461440
H        11.97056963023017    3.99659542214064   30.55331519615367
H        12.21465761644046    4.48217631321750   32.23028901013748
C         7.96069522687084    0.74192795848250   32.00711914955215
H         7.52305089020688   -0.24598387366977   31.87306219772398
H         7.15636450325399    1.45329752294084   32.20498956143914
H         8.61641948798717    0.70745326239758   32.87543682855510
C         9.96431527805395    0.27797545530301   30.54292157705611
H        10.59186294570266    0.24338965854003   31.43088803994367
H        10.56492168561525    0.61783457374805   29.70054972890319
H         9.64095799784284   -0.74003701909321   30.33111552290699
C         4.05795577923864    5.77784943083428   29.38091676043806
H         3.50394990524028    6.72470966114668   29.37035521815188
C         4.02243859031176    5.15385734892635   27.98942953041136
H         4.68988339080076    4.29389904507238   27.94493075112563
H         4.31541823630688    5.86494981654080   27.21826899162140
H         3.01323825090716    4.81116075521617   27.76627046798699
C         5.08766393717396    8.89904779178132   29.95825463145262
H         4.03440808568164    8.71426108567650   29.75770808655643
H         5.60576462284160    9.04873070761778   29.01268419257027
H         5.15582791003933    9.82770194103489   30.52291491646064
C         5.02523859676114    7.59521661765302   32.12371927747053
H         5.18201044607803    8.47016951253703   32.75253287503897
H         5.43221825416399    6.72253431008118   32.63874880769264
H         3.95304268195684    7.45855892591004   31.99307901248881
C         3.43549359299106    4.84090223147001   30.41490005333428
H         2.37116955269089    4.71024946513607   30.22483117594533
H         3.56816574173912    5.22575991830904   31.42461478928071
H         3.91935994212002    3.86633247326793   30.37130602517312
H        10.55424935996194    2.73991541293652   28.98695616528640
H         6.21035214362769    7.23232583005523   27.86634082153130

