63
CSD_code = NEGSIE | q = 0 | S = 0 | Stoichiometry = C29H25Cl3N3P2V | MND = 6
V         9.52696874221148    2.13241040099260   14.04901039832999
Cl       10.98580906923718    2.12318752669230   15.56484826612700
Cl        8.21025668340435    1.74408365286268   12.46745566389646
P         8.09046075658850    1.06201117508824   15.45464654855280
P        11.12511748588051    2.66023924966673   12.51663894113849
Cl        8.81005489794593    4.26457557142330   14.46659173510521
N        10.23834196064423    0.19510186631327   13.73011993848185
N         8.68458579577415   -0.52799394633570   15.26701096833010
N        11.75070327693594    1.09482077391605   12.24593224005460
C         6.32149015634253    0.81826864404023   15.14369484247440
C        11.80489849176000   -1.27524581332388   12.70735940736710
H        12.63067195236689   -1.41771246790576   12.02880485100267
C        11.26219632507640   -0.00165187628246   12.90121089931773
C         9.71947635391494   -0.81813121751464   14.42166240547619
C        10.79910298345915    3.20943025805624   10.82082343097927
C         8.51225238888950    2.52458222042792   17.75084074361919
H         8.82147751997309    3.29596610411931   17.05459262520435
C        11.26126571333186   -2.33463217806601   13.40954098451821
H        11.66059849492756   -3.32916224667298   13.28057969010316
C        12.60659245088327    3.63426041732720   12.92310817449432
C         8.10128980235986    1.29013162772425   17.25894317657949
C        10.38961441934465    2.31381407240046    9.83852861035634
H        10.31508283789883    1.25884546689053   10.07013436921257
C        10.20989899577582   -2.11966841261557   14.28085804089221
H         9.77554408060563   -2.92911995398018   14.84544398003315
C         8.51839590270467    2.75317687185557   19.11626044320379
H         8.83889319303853    3.71029626615935   19.50012631590559
C         5.87564649466310   -0.12173249684068   14.22059924374823
H         6.58972788878642   -0.76053711797698   13.71618205168945
C         7.67676094575155    0.29642978580189   18.13564242588665
H         7.32437504673328   -0.65346999367300   17.75394210476985
C         4.52563230807900   -0.22113871169554   13.93691815322732
H         4.17806003907299   -0.95323355977838   13.22219418842313
C        13.58083432781494    5.37723303527655   14.25640899452771
H        13.49153313534074    6.12247324599989   15.03261467474261
C        12.48907946298641    4.59417640969607   13.92304044515133
H        11.53782200471325    4.71899198587397   14.42804230890069
C        13.81217663271596    3.47604110280290   12.24701271737336
H        13.89856496178509    2.75122334847167   11.44746747452756
C        10.12148296514457    4.13421884085731    8.29906866944385
H         9.85850063996071    4.49371444110769    7.31504358375606
C         8.11579862316246    1.75531175291584   19.98849005255666
H         8.12588425281171    1.93177834441807   21.05416895274655
C        10.05969305351149    2.77838924002053    8.57824289532577
H         9.74322872158264    2.08330777292502    7.81397170779515
C        14.78603701526800    5.20425078083582   13.59586915646806
H        15.63997115104624    5.81060200316424   13.86061278267485
C        10.83791307552163    4.57338714490855   10.54506126653631
H        11.12279656142673    5.26406883810641   11.32823221786729
C         3.62074102441452    0.62394894886246   14.55885957072999
H         2.56756272002861    0.54561729766012   14.33224729470346
C         4.06572829538897    1.57889807137893   15.45996769585992
H         3.36010007830730    2.24725229603420   15.93121179261530
C        14.90025359433825    4.25722022422247   12.58974690333211
H        15.83948144415365    4.13126531125781   12.07004044373563
C         7.69116742329253    0.52974215480592   19.49821111775258
H         7.36663143788902   -0.24249897234177   20.18089933732269
C         5.41322865047119    1.68187230518602   15.74950891231137
H         5.77617247606500    2.43412595228222   16.43797024720348
C        10.50438734721586    5.03142678520707    9.28443212573789
H        10.53616186848316    6.08930928956108    9.06905998291317
H         8.28863147020066   -1.30191437347202   15.78853871063913
H        12.52819213060221    0.94166446287541   11.61341210625531

