68
CSD_code = NEGTOI | q = 0 | S = 0 | Stoichiometry = C24H33FN3O4ReS2 | MND = 5
Re       -2.59903068263504   10.68854639791786   18.26516430682060
O        -3.54736611355075   11.32254928173907   19.48086341472467
O         0.65113234673035   12.40882167671279   16.46015198368206
O        -4.21709913547020    8.65067718372067   24.04165223975761
O        -2.80120013358005    8.36438431629862   22.32972522967223
F        -4.91025499081094    2.81014200527590   23.33264896125865
C        -2.11440928593302    5.77481885308754   23.93561313580518
C        -2.41986175031236    5.33784599693705   22.65340554592591
C        -3.35901581245231    4.34311702736734   22.44284109395161
C        -3.99696771941954    3.78298989990089   23.53200651654389
C        -3.71496079228691    4.19060624479316   24.82262130978468
C        -2.77391922591083    5.18400265087093   25.01061880296139
C        -1.00815363533279    9.40814947969054   24.60680380672297
C        -1.93646833308735    8.17999638350225   24.55674142511031
C        -1.14205483963962    6.89443709402840   24.23287090604493
C        -0.09136659935674    7.15358319594729   23.15397843239400
C         0.66605874967396    8.45532151538161   23.43228354137889
C         1.22787555442483    8.52418129659660   24.87099286000037
C         0.10140304519324    9.20016427002017   25.66494141285069
N        -0.31513116907460    9.52845328037669   23.33736943317605
C         0.22789454934275   10.84525569952677   23.06541644638393
C         0.54588420661866   11.00536862118016   21.57599667742503
C        -0.73123899637464   10.79615043637033   20.75831279208071
N        -0.53899759943124   10.60314163591107   19.30849383739355
C         0.21578310002824   11.71173084448836   18.71968849928418
C        -0.15194152925180   11.93580535161348   17.24320511255167
N        -1.41934859591560   11.58112838289584   16.95050083211112
C        -1.86879037328570   11.90608169196816   15.60085248704956
C        -3.37731542036266   12.08137534133789   15.62352644785255
S        -4.08340955351783   10.62195110904549   16.47792319821798
S        -2.36485760374583    8.40618966784143   18.16231955667919
C        -0.87205986853725    8.16066074151550   19.20092485815819
C         0.09554346251419    9.31424996751239   18.99307729304465
C        -3.11120346839454    8.42366806806893   23.62387260827278
C        -3.87425651195097    8.53119470612258   21.39963644787479
H        -1.93016927430125    5.76663847713889   21.79455885574974
H        -3.59950842850978    4.00443581840396   21.44745383164756
H        -4.22679874225252    3.73521224876953   25.65529567737489
H        -2.54747874271731    5.50656433755926   26.01647003135479
H        -1.61264505563912   10.29613065678125   24.80709764942619
H        -2.39659533202206    8.06969532270334   25.54418449211985
H        -0.61326658122650    6.61914081872796   25.15144230590737
H         0.59971538474071    6.30999060142682   23.10580654195462
H        -0.57101369772420    7.26891725349522   22.18474175427892
H         1.45385941649592    8.57862280012301   22.68559578828877
H         1.47545991196213    7.53383124381921   25.24696587082646
H         2.13878948724261    9.12283810070799   24.89181570529517
H         0.42105594924646   10.16570136853908   26.05669816896156
H        -0.24623044386040    8.59855882356138   26.50157144460454
H         1.13617739701900   11.06195458149788   23.64904558978385
H        -0.53213649865077   11.58079775011112   23.34042160720767
H         1.30743596659000   10.27623584446883   21.29756646069914
H         0.96131058546158   12.00073543708860   21.41200900848401
H        -1.24804826905570    9.92726926823975   21.16877031063363
H        -1.38609645315761   11.66189857696383   20.89014806285984
H         1.29874539871486   11.56802032200032   18.79799116320049
H        -0.04873984983089   12.63799748783580   19.23863462732874
H        -1.60205161896642   11.08418041986126   14.92282895364152
H        -1.36165052573330   12.81466379685382   15.25555877588476
H        -3.79806097450992   12.11185924779925   14.62082252143203
H        -3.66932086344355   12.97158746612236   16.18177916949049
H        -1.19165297438667    8.07571615651648   20.23840678455309
H        -0.42472522986173    7.21960682704154   18.88226784295177
H         0.99576853644604    9.16080998407087   19.60054776296079
H         0.39850061047111    9.33628621592532   17.93998013102324
H        -3.82287574021471    7.71586090641127   20.67952383852212
H        -3.76855312606696    9.48889923334625   20.88302143333735
H        -4.82649549719071    8.50580229056970   21.92923638528920

