75
CSD_code = NEGVUS | q = 0 | S = 0 | Stoichiometry = C24H43ClN6Zr | MND = 6
C        -1.93829454601797    0.91565665573493   12.47464001788649
H        -1.48143248787797    1.08006060931518   13.44680727033921
H        -1.15294510247588    0.90595423267167   11.72296217115256
H        -2.41400348301001   -0.06182940431359   12.47302976478107
C        -2.95228310809509    2.02526245259700   12.16334697194690
C        -3.61081880269429    1.76635806671082   10.80514756363410
H        -3.91321740690697    0.72618200689448   10.70657995923925
H        -2.91396541139231    1.98645020636459    9.99976568545894
H        -4.49249439411648    2.39760837324525   10.69098423637257
C        -7.15335901216306    6.54217349334615   14.78182225098679
H        -7.14136069701301    7.07531034029541   13.82957310840315
H        -6.23909282424847    6.77727570088785   15.33115653093064
H        -8.01867805185140    6.89172334098963   15.36623405243772
C        -8.45580490091126    4.80752067924465   13.79198789455999
H        -9.34060449409748    5.17361163902506   14.33620490605299
H        -8.55435417707284    3.72762750104924   13.65901465294217
H        -8.42977003274335    5.28408248309418   12.80982344342157
C        -7.28947984842898    4.37696297187119   15.82724022226475
H        -6.51549286326333    4.79530817272611   16.48741466127862
H        -8.26958163332723    4.51796522740105   16.31044292545267
C        -6.99663865694449    2.92890877274023   15.56293229218388
C        -7.36186585918510    1.71706324985121   16.11465676456170
H        -8.05488812757067    1.54898704563570   16.91752832622992
C        -6.63564221676209    0.72496354196378   15.41395986908655
H        -6.68719761613455   -0.33440075531595   15.58486251744480
C        -5.86979825004058    1.38634151798336   14.47374594227085
C        -4.88660416589415    0.98324186094414   13.40765337200829
H        -5.42152920610052    0.77897705601922   12.47040785894197
H        -4.34321393606613    0.07466386644233   13.70497455979931
C        -2.24038898726066    3.38517608908798   12.14740599868083
H        -2.97851611212581    4.18352349862126   11.97041857327510
H        -1.48051812132450    3.41210224960979   11.36789456772705
H        -1.75512442710134    3.56816330453332   13.10667436073765
C        -4.75155299892737    5.23286773998945    9.85608811052938
H        -3.70358050184064    4.93672806190291    9.83504097629336
H        -5.01485527831138    5.62571683911487    8.87598848327784
H        -5.37561555585961    4.36389320360138   10.05057524142937
C        -4.14298780101162    7.53720066469854   10.51980841974457
H        -4.32580307362912    8.39242140710714   11.16493405043716
H        -4.40750976580020    7.82136879050041    9.50368772712012
H        -3.08109590780002    7.30174779041338   10.54157729304395
C        -6.47552505819485    6.70946471254419   10.90517258939216
H        -7.08324285384151    5.83093331094633   11.12952658140289
H        -6.75726706658214    7.08622686663270    9.92428805979431
H        -6.67226079621957    7.49059345114710   11.63987418243565
C        -4.98093415323660    6.31078654671938   10.93365863973153
C        -4.05825332092612    6.71080606243991   13.17408431887834
H        -4.66208718325808    7.63740347215138   13.26517051617463
H        -3.05429898789407    7.03410383570079   12.82577777976507
C        -3.89463162638600    6.11835297553253   14.54720437475087
C        -3.59469930382832    6.75016826581632   15.73640394308382
H        -3.46757245749322    7.80570953297740   15.89488282885358
C        -3.47399331311174    5.73381763302014   16.70415505275382
H        -3.23945399653873    5.86459397046916   17.74450002990141
C        -3.71565053445113    4.54067871504763   16.05744805813556
C        -3.67408234182266    3.15903456400821   16.62999870963365
H        -3.35910772785406    3.22614856299421   17.68519843934172
H        -4.66497909568206    2.69554362456482   16.60422000341706
C        -1.40311975583696    2.78596459496885   15.96369349576756
H        -1.02456072060013    2.76720701055631   16.99594066787063
H        -1.37858930905067    3.81487993681668   15.60823392772265
H        -0.74340528492189    2.17469428390035   15.34714973057503
C        -2.84938190276029    0.92368034555411   16.36193547291105
H        -2.20200420688904    0.28215872994422   15.76353087429193
H        -3.87724678556886    0.57480677141979   16.27285810522512
H        -2.54080264648747    0.83858968127338   17.41396339970070
Cl       -6.75980601856287    3.13220487012211   11.63228377489311
N        -3.98290740181512    2.13856948627002   13.21028557832087
H        -3.49599178361505    2.27224747341993   14.12299640712895
N        -6.09351917115448    2.72057878246906   14.57350728518209
N        -7.22668277682547    5.10247054766000   14.53558466329872
N        -3.96400677514252    4.76423656080607   14.72997101915350
N        -4.64785931056921    5.75639747147159   12.24774018695334
N        -2.76587897283412    2.28933774202102   15.87194844423203
Zr       -5.27843751663755    4.09078906402020   13.25561926496138

