57
CSD_code = NEGYEG | q = 1 | S = 0 | Stoichiometry = C22H28MnN4O2(1+) | MND = 6
O         5.15865426276449    2.96055324875569    7.31376614887442
C         4.49899748837049    2.98949846837653    6.19280309815708
C         4.09816564368511    1.78737241868350    5.57111395797941
H         4.37225897605127    0.85413353331187    6.04170777187526
C         3.40239531428037    1.80100612693388    4.38767255813219
H         3.12719576718306    0.86894831324852    3.91846377485347
C         3.04213686838396    3.01016763008593    3.78730339830297
H         2.49073148198484    3.00504261138120    2.86077920710256
C         3.37678754212440    4.19777757547854    4.38891768322799
H         3.08000604908502    5.13648857242246    3.94472111516464
C         4.11722352964127    4.22276488585580    5.58182047745621
C         4.33755159198022    5.44635103422525    6.27842404910666
H         3.73184253795193    6.29417791391807    5.95256690990562
N         5.10276297921724    5.58212286930669    7.31686252349976
C         4.87731449039511    6.76572744552134    8.12880652721343
H         4.31222604512542    7.51489376016798    7.56117321512776
H         5.83298092143210    7.20447980696333    8.42354983947837
C         4.07413191665854    6.39235551123941    9.38767330650598
H         3.77442099894342    7.31396238360443    9.88768009856749
H         3.16688172988777    5.86033505028700    9.08648635477711
C         4.87011916967552    5.54427839796993   10.37861315855326
H         5.80477769328442    6.05745009223108   10.62104883123323
H         4.28912399553606    5.42826145862716   11.30429249273222
N         5.21501783598860    4.23179918780626    9.82247125548639
H         4.34079257980465    3.72482114479129    9.65457166841573
C         6.02436912481124    3.42959479165087   10.74552661952391
H         5.45220395220938    3.13914072395877   11.63637588306223
H         6.87400302433787    4.04078716255987   11.06447402720013
C         6.53452393733030    2.18755216688574   10.02154819180929
H         7.08910912819611    1.54519278886637   10.71814845442483
H         5.68575732169262    1.61973609258353    9.62870270489639
N         7.36659862724611    2.59609944512856    8.88518691559931
H         8.23869154780230    2.98060691187894    9.26067382914370
C         7.71444273978796    1.46906690376055    8.01362615471225
H         6.78081070342768    1.01655694179559    7.66830109862085
H         8.27976674934889    0.71094714935710    8.57360028347640
C         8.53372598394656    1.91569369736653    6.80358565102272
H         8.83460614204058    1.02819532823867    6.24586561559374
H         9.44030940646506    2.42957436933058    7.13656771054237
C         7.75363810808262    2.84158873381150    5.85311671225814
H         8.33391069094511    2.96776379967333    4.93108333385928
H         6.79745438619414    2.37950716237861    5.59856890186930
N         7.53019814511864    4.12899079250793    6.48864429032009
C         8.31089838031738    5.09478177394333    6.11440285138066
H         8.93006088848426    4.96092495459238    5.22527563663459
C         8.53147170120002    6.29628154992361    6.84844423538954
C         9.29046729031405    7.34373226559837    6.30203557072225
H         9.60162632196578    7.27331578813019    5.27015709591245
C         9.62480908043440    8.44323082287869    7.05291025941443
H        10.19035042535576    9.25025559229474    6.61540647989873
C         9.24550655443803    8.50924844903609    8.39609258369224
H         9.52140548162023    9.36889191211108    8.98737758317273
C         8.53068447794461    7.48848309609886    8.97222625299752
H         8.24192769880776    7.53299035568040   10.01251679897866
C         8.12931457535872    6.36544214880888    8.21722663873990
O         7.45060755864317    5.40686663370334    8.77680033683330
Mn        6.30525243669845    4.21679025427451    7.98924187656796

