95
CSD_code = NEHBAE | q = 1 | S = 0 | Stoichiometry = C42H48AgN4(1+) | MND = 2
C         4.02983871161797   14.25432841588388    0.95841722311481
C         3.76582742799011   16.37850688829401    0.32499322206237
H         3.79083346345008   17.21662514910705   -0.34035233260902
C         3.36057485226873   16.28024063752265    1.61474600502825
H         2.97917890347743   17.01965807473085    2.28818721512251
C         4.68779370208763   14.78634815337850   -1.33413712036771
C         3.87535510038171   14.12551538793234   -2.25490588994507
C         4.39527804670161   13.84801248111803   -3.51042249679832
H         3.76495647042872   13.35875587046714   -4.23687899043456
C         5.69472150604692   14.19311345199694   -3.85006648395537
C         6.48976019867956   14.82449509862781   -2.90111995316866
H         7.50635375067701   15.08768333119790   -3.15362560448257
C         6.00538642628493   15.13353261457863   -1.64113462931687
C         2.47806569644033   13.71892091830120   -1.89652514439453
H         2.50140004092759   12.89814970857897   -1.17145033229421
H         1.94431825885309   13.37435702642411   -2.77697755892097
H         1.92722933064304   14.54801972084179   -1.45435003344601
C         6.24598176772922   13.89716286135475   -5.20965429940040
H         5.50816844390370   13.40020601777298   -5.83373343537655
H         7.12896512276151   13.26365347616788   -5.13420519427417
H         6.54791221525934   14.82007398362727   -5.70223871220467
C         6.86884246011835   15.81624677458031   -0.62378640656979
H         6.52624142023816   16.83543996697173   -0.44641265283039
H         7.89861425191560   15.85974432952491   -0.96613956586514
H         6.83978547557556   15.28238278906640    0.32667403422179
C         3.21198864892789   14.42889192891957    3.25447335758930
C         1.87289335687910   14.17774744644674    3.56201079478969
C         1.56954523294135   13.67825852800698    4.81745824697194
H         0.53843604086730   13.47987744952239    5.07025001806566
C         2.56013274212754   13.43639485058941    5.76167489163288
C         3.88188758739852   13.68140286586072    5.42127402777648
H         4.66246296300509   13.49942266290352    6.14377837167886
C         4.23088441612926   14.16711210820511    4.16988405853315
C         0.79825837390340   14.43785259448198    2.54999042187564
H        -0.15077904087923   14.03416379089158    2.89038849713327
H         1.05027157647260   13.97741871313480    1.59410793453291
H         0.67260251808122   15.50758777949410    2.38400867062285
C         2.19088948476178   12.91970472695497    7.11685178480940
H         1.66096756642689   11.97165411199763    7.03317698400453
H         1.52647446106947   13.62147984047008    7.61838452022269
H         3.07172989496225   12.77743410663020    7.73708086835604
C         5.66745555614724   14.39804990016641    3.81053266038044
H         6.29918639173433   14.30431956098078    4.68854868506345
H         5.81163263740752   15.38731085412329    3.37828280601100
H         5.99432607729762   13.65314342985664    3.07690864581310
C         4.94969522669674   10.13002427846559    0.93480337896806
C         5.21720947881581    8.01395021675873    0.27633672246111
H         5.19387864433247    7.18353554614706   -0.39865885327977
C         5.62015761268863    8.09718917676904    1.56792594999296
H         6.00081683089254    7.34998029813495    2.23316059737420
C         4.29582991679871    9.62680794957783   -1.36412687009150
C         2.97800167417927    9.28521761339707   -1.67620878259629
C         2.49531873637085    9.60970158792716   -2.93292314162725
H         1.47887109693860    9.35029867285671   -3.18984748170566
C         3.29226053410032   10.25145866143519   -3.87334246842866
C         4.59098673527730   10.59315221741629   -3.52754043496429
H         5.22178154912797   11.09269610595949   -4.24654144104324
C         5.10921146029826   10.30019383288674   -2.27485823686953
C         2.11271960641620    8.59319314089975   -0.66673600005445
H         1.08292327530802    8.55596921241165   -1.00967500101259
H         2.14292326086024    9.11731985149477    0.28911171777195
H         2.45271028604349    7.57137851049275   -0.49959572920716
C         2.74346351483018   10.56288909456737   -5.23040728486346
H         2.44274483485982    9.64545909659933   -5.73380540852437
H         3.48248232444275   11.06689969633111   -5.84734237116807
H         1.86023098001050   11.19533014186303   -5.14959873093303
C         6.50485730016177   10.70509636448949   -1.90815942700324
H         6.47765308119349   11.51726950299065   -1.17335770088184
H         7.04022599419790   11.06142382892059   -2.78291103268266
H         7.05629911962723    9.87212207874875   -1.47426462987190
C         5.76375643238523    9.93013367541517    3.22924918233698
C         4.74317611706088   10.18317343310249    4.14517822354650
C         5.09026456723690   10.65511168673991    5.40233245606879
H         4.30850885016100   10.83017879719393    6.12524208372941
C         6.41164086395432   10.89501725129692    5.74779635321800
C         7.40378629431341   10.66404392161106    4.80246518835891
H         8.43446195104904   10.85978515088432    5.05900926890596
C         7.10230992859390   10.17881527908542    3.54105432003919
C         3.30706660574448    9.95871833872072    3.77989923878327
H         2.98350923494574   10.71269719734346    3.05398389357628
H         2.67326780035029   10.04380304343741    4.65729481284119
H         3.16198558817741    8.97480504736468    3.33591975811956
C         6.77890485752898   11.39512978337006    7.10968904692229
H         7.30921227259557   12.34395084393183    7.03829112354349
H         7.44233614740964   10.68710199458912    7.60368563508978
H         5.89715387864824   11.53008953017927    7.73021229703137
C         8.17760660954711    9.93298374580716    2.52615320704165
H         8.30513069980353    8.86574518307611    2.34644578414434
H         9.12589006897940   10.33407822588060    2.87164811575999
H         7.92479033202495   10.40522772917273    1.57618016786656
N         4.16734263813372   15.12811450123336   -0.05539750517215
N         3.53389570805870   14.97442603079187    1.98103799501345
N         4.81496025082468    9.26835632744137   -0.08958940500597
N         5.44438815755601    9.39824691722295    1.94959830387358
Ag        4.48887154017452   12.19200930878430    0.94691600540844

