57
CSD_code = NEHCUZ | q = 1 | S = 0 | Stoichiometry = C12H32NiO9P3(1+) | MND = 6
C        -1.46892247224340    5.15286190751707    3.36119380293920
H        -2.30484117905217    5.38352268914722    4.00785133753787
H        -1.66627926161467    5.24570985132876    2.29615346028795
C        -0.48975117084809    4.24791322826780    3.78563620683119
H        -0.49726433586168    3.85150785843284    4.79751345027083
C         0.61298152708832    4.06594206740691    2.95413189320121
H         0.49192635771215    4.16953885872352    1.87915074575715
H         1.42857167487175    3.43294660618793    3.27775040283382
C         3.71145918519218    8.59179654830920    4.01745031749383
H         3.71770869938029    9.41346694854434    4.73179774771713
H         3.14717717448434    8.86532366899337    3.12930236854384
H         4.73289525820377    8.34263600543554    3.73247659496461
C         3.47179899194578    5.29601891025413    1.61135465292123
H         4.28569825891153    5.58874704052370    0.94883476291974
H         2.51458209725756    5.48660965827876    1.12258834710932
H         3.56094719978562    4.23516884418981    1.85083409933754
C         4.17406923242785    4.90471987283172    5.50898810740691
H         4.21536440030574    3.91337895342121    5.95671699172940
H         4.36884430665864    5.66337717386791    6.26604032103876
H         4.91613383276988    4.98702713461500    4.71449015866022
C         0.44329570444985    9.99546302588477    4.19010766535192
H        -0.02837376172179   10.97082628401799    4.07572987221307
H         0.92406004972903    9.70622205647041    3.25522344613952
H         1.17802844227097   10.03103825446943    4.99320461330942
C         0.94105795151926    6.87514489815860    7.17117304476591
H         1.71993990620526    7.31457397745098    7.79232848129176
H         1.35825023590870    6.05948490184672    6.57762302847421
H         0.13828636335256    6.49086093440586    7.80312846438484
C        -2.53714313633267    8.12765080250397    6.41780419286755
H        -3.24411819444252    7.50789082823582    6.96723155197012
H        -3.06984654887436    8.90614446211807    5.87355280965225
H        -1.83063046206189    8.58982012448701    7.10681481323149
C         1.91699304544994    9.10206415134553    0.34082250016618
H         2.79295845441660    9.66904050085687    0.65409489372658
H         1.06571286280896    9.77142248345280    0.22891776916685
H         2.12707592427910    8.60757648100195   -0.60720231983787
C        -2.10654731467688    8.36163846715847    1.55371904437447
H        -2.55836490617410    9.33369711143911    1.36163442328484
H        -2.23936312013325    8.09601065511221    2.60454318031849
H        -2.57874717029287    7.60802368624376    0.92061759425178
C        -0.16788176232894    6.81359315907217   -1.09197137470111
H        -0.94700118888892    6.15383945504634   -1.47515252631713
H         0.70937950518823    6.74465236335693   -1.73547653061134
H        -0.53263982775453    7.84063763652816   -1.07824452901601
Ni        0.36113471094824    6.06911716102714    3.53623111687605
O         3.11252595690468    7.48385878578118    4.68394127396276
O         3.60712892589266    6.09308436956419    2.77611380779683
O         2.85240503724272    5.05474287200111    4.98679996042650
O        -0.60268217247740    9.09249077917113    4.51108401446374
O         0.45645854873759    7.91270839778894    6.33222572749427
O        -1.86620791429730    7.26470676948531    5.49645191296030
O         1.67584279034073    8.13399223579403    1.36779231722013
O        -0.72730736288082    8.49725554616236    1.24128638592072
O         0.17299230473268    6.36215144785733    0.21685264370043
P         2.49152244009483    6.21302701742612    3.93460961771760
P        -0.37922886353947    7.57960505499068    4.98786893664002
P         0.31263476900433    7.29102903602365    1.54636240686860

