79
CSD_code = NEHDUC | q = 0 | S = 0 | Stoichiometry = C25H29F18MoNO5 | MND = 6
Mo        3.20897551034682   11.99075011055653    6.75288686462437
F         0.60093552452895   11.96065351284078    4.17934231578063
F         1.36416671508043   13.92153219499815    3.79162095830906
F        -0.75042343448838   13.60698902543874    3.95849824467418
F         0.34942407630165   15.27766320195183    7.56806437522283
F         0.93945811326025   15.80416633200827    5.57928543318227
F        -1.10484419463555   15.27831738928458    5.99331101255364
O         4.95900120767732   11.24346998002250    6.35399682717079
F         7.04009690055931    9.37544070834046    8.49697794696561
O         1.81366748971160   13.30987974391077    6.40962578311315
F         7.94033170527429    9.37315081529849    5.92389748228237
O         3.36956859387394   12.18979397845629    4.48649855184917
O         3.50555294440504   12.36982546009824    8.61335215443688
O         4.56640317092745   13.93257736495193    6.39384187133829
F         4.93067225545225   13.52239335650010   10.55367661958949
F         4.94377247603164    9.73652786349179    8.78087942932366
F         6.29576674335260   11.39574343586540    8.56257329052117
F         6.83437114413836   10.57891109212728    4.53601348482835
F         2.51418890962257   14.57716550955688    9.86271421074759
F         7.74068035220927   11.48844722095587    6.25241276558393
F         3.75524285890216   12.66895824902636   12.13684573000669
F         1.00807070508947   13.20567912963278    9.17557726428413
F         5.01236092148450   11.41445264388670   10.95015095202095
F         1.40278440748467   13.39590226077074   11.27168195072792
N        -0.50113284817942    5.52205044438255    6.77543262539436
C         0.42986708998520   13.25407990346959    4.48180855439359
C         1.13965950033247    7.02711797552354    7.73534630328403
H         1.40178068457867    6.30624916057743    8.49195837532809
C         0.14294343159656    6.73443318618432    6.78905188232321
C         1.80664000394105    8.22732467005599    7.72775510788368
H         2.57146748337458    8.41895120139694    8.46514040789250
C         0.51937463844955   13.48186479149787    6.01373153886197
C        -0.14189863550614    7.72880605646275    5.83829058317588
H        -0.89605741986228    7.56357596268240    5.08654341209855
C         5.75265463601654   10.16786143366667    6.60042788810312
C         0.51993044251245    8.93259364990606    5.83655819769899
H         0.27599970857720    9.67217137041457    5.08882776162913
C         4.37889079619602   13.13325529215902    4.15635546939007
H         4.23838453801079   13.45797322777349    3.11454397787856
H         5.36835356671791   12.66299338753401    4.26805969757747
C         2.20485523836089   10.44767023274520    6.78280229154373
C         4.29115947184987   14.34195791774341    5.07619100362856
H         5.03556009713289   15.08834174197212    4.75404747448417
H         3.29144613077512   14.79616582095852    5.01124138157367
C         1.52046919803412    9.23320430948234    6.78192636077624
C         6.02870896427034   10.16835329900517    8.12129375250756
C         5.17471837981523    8.80713963794305    6.18181404408979
H         5.74756987143699    7.99948643632256    6.63124889526838
H         4.13894611781655    8.76689882147639    6.51471793576605
H         5.20340073759858    8.70994934347338    5.09913657454798
C        -0.51280179201441   12.56373029591604    6.68178758010994
H        -1.42065698645867   12.51169817002761    6.08567855093066
H        -0.05655246255371   11.57843677565895    6.77129506171211
H        -0.75238940317922   12.93329435319328    7.67324246759514
C         0.16258613947112   14.96749499982093    6.28640100777131
C         3.41057604751804   11.07138619406699    3.61627613604582
H         2.65782131210247   10.36760973529967    3.96945110653516
H         3.17742239826873   11.39173736099851    2.59290109270735
H         4.40148232110846   10.60305117780663    3.63465836739087
C         3.02629767244088   12.22738721465976    9.88281870009952
C         4.46547573080775   14.98735297919301    7.32463051856135
H         4.76902966277116   14.58777213556261    8.28987140506201
H         5.13665248010310   15.80741677496058    7.04359401022622
H         3.43887120153240   15.36659808034567    7.38777604429524
C         7.08840211623308   10.40029830596874    5.84704000428493
C        -1.63675267429811    5.32149318296421    5.90919490961474
H        -2.02590114612053    4.31581232114002    6.04914596437133
H        -2.44298476589949    6.03468043552531    6.11657585125947
H        -1.34188352566446    5.42338695328538    4.86205770121226
C        -0.29398632466085    4.58594102523619    7.85297011117234
H        -0.88176633011035    3.68925762744323    7.67135134198303
H         0.75673507451962    4.29190081065923    7.90603284441769
H        -0.59055357618565    5.00193224275839    8.82293596432542
C         2.33233340863093   10.89598374605992   10.19429114430011
H         1.82201247269054   10.95289658514906   11.15325117712384
H         1.62148247455854   10.69471700614634    9.39404995723858
H         3.06927961542957   10.09943794951484   10.21917083184244
C         4.19131796968924   12.46218841164521   10.88483331056174
C         1.99203396889583   13.36774729407671   10.07093982117008

