73
CSD_code = NEHFAK | q = 0 | S = 0 | Stoichiometry = C23H23F18MoNO7 | MND = 6
Mo        3.91820587560414    3.53995826871251   12.94156097615602
F         0.25894075651715    2.64269093562615   10.59573260627773
F         2.59365391153467    1.96892541595746    9.58755440229030
F         2.26458682025765    3.52324444706095    8.14742068573973
F        -0.02491096459060    4.59115318594947   11.43507191418866
F        -0.00449471356013    4.34329456760137    9.30377351914796
F         1.55741667866678    4.26971454410331   16.66183613602733
F         1.67159301840977    6.38065627671364   17.05497634567274
F         0.34106525634787    5.12526742780289   14.38220443998408
F         6.95357125891788    4.62924194194476   14.74273925679068
F         4.06622426437864    3.49328953092030    9.31184154868087
F         0.80401594633180    7.20380333502745   14.68853309265988
F         3.43400793151817    5.16823397171495   17.16619336796092
F         1.55156117946284    6.18418793998627   12.95577464328879
O         2.96327735816338    4.40744717017989   14.41470022467775
F         7.49356438318547    3.13966364558402   13.28590725741359
F         8.34150465829309    3.07612538489476   15.26442762863827
F         5.34486204047298    0.20885970442650   15.25219911248116
O         2.55603785172267    3.72624791868899   11.68620269528173
F         7.30938911465803    0.66796228768519   15.98648861379033
F         6.93813081622648    0.57622046497959   13.87134712070305
O         2.57517785225112    1.62863851364996   13.58451494800833
O         4.55589403763107    1.85244251846218   11.56300523391105
O         9.35306147045461    8.06895092531944    9.04366682072112
O         5.01936988656913    2.63827982335494   14.11420996562554
O         9.31004552837973    9.24060160693714   10.85158413728667
C         2.43683639275427    5.62571556505070   10.14149799429961
H         2.34752533138313    5.80413728705081    9.07236738163953
H         1.76551108252244    6.29150711457037   10.67372594183818
H         3.45829957019940    5.81312253921596   10.47191494466969
C         7.47850618011996    6.35849054514968    9.94856745293633
H         7.86636224781921    6.21634812441497    8.95129906980139
C         7.95419673551950    7.43212903764881   10.70693822868095
C         2.30474894033063    5.35992916954754   16.47268607478255
C         7.22239203129812    3.33191096558340   14.58206279965006
C         6.01037100898044    2.47208034730657   15.03003263206959
C         2.61296960961201    5.60548646846010   14.96972139484305
C         6.53080237237387    5.51986447049806   10.46757192685266
H         6.14806285616194    4.70459210892549    9.87413209601893
C         6.51588585370570    6.80680147972143   12.52084785192589
H         6.15404909130717    6.96008808890084   13.52309925131255
C         6.01415707781997    5.70521393833761   11.77933789392703
C         3.65150603679231    6.72230613727357   14.83709623419241
H         3.31190492678720    7.62065221486348   15.34857942993956
H         4.59134653164049    6.38164948700746   15.26768875815822
H         3.80274764809339    6.92796719487826   13.77907704103375
C         0.56991205689923    3.94067969675223   10.43743305713849
C         7.46073458972913    7.64653419257641   11.99723728115313
H         7.84721496850598    8.47784414017388   12.56711059980838
C         2.74622779267008    3.28271980228222    9.36709689006949
C         4.03660647667430    0.59797838903801   11.98888352891207
H         4.66823690503987    0.19160638356533   12.79233652189289
H         4.04354246101523   -0.09787549609364   11.13753840737431
C         5.07694321272995    4.83046914109961   12.28674137871272
C         2.10469550301195    4.16377374757413   10.47003003552702
C         1.30366009542040    6.04084099645547   14.26586008791034
C         2.60527743983953    0.74048069451724   12.49013329212837
H         1.95133640903485    1.10193334095061   11.68444121382352
H         2.24689909842497   -0.25162778069051   12.80783387427100
C         6.42218945918679    0.97665195300927   15.04401285498790
C         5.82388373323893    1.69597351207293   10.93395274083874
H         6.20691248565519    2.69455446475001   10.73447556355841
H         6.52438509124865    1.16553873747601   11.58513344228108
H         5.70114413610156    1.14275873395992    9.99562077240111
C         1.26657831048224    1.84458885735171   14.07285986475278
H         1.35147227663706    2.51381604020366   14.92603667958071
H         0.62711106560269    2.30481125222289   13.31188833337990
H         0.82040193344748    0.89643288847037   14.39300926303397
C         5.58617342588737    2.87180056473386   16.44925870456670
H         6.40284943347411    2.71989276677831   17.15157219798914
H         5.29505086436055    3.91960866881415   16.44574200647590
H         4.72867155624323    2.27033059128264   16.74609394706995
N         8.93425547640854    8.30148968298898   10.16735636839853

