75
CSD_code = NEHHUD | q = 0 | S = 0 | Stoichiometry = C36H30As2N6Pd | MND = 4
Pd        2.77446839497038    2.62301465664572    4.54475700969722
As        3.03695023883033    1.31317660862926    2.61601283143807
N         2.56896516548127    0.96340521668608    5.72539410550166
N         1.61324349909851    0.40949156435227    5.32360876323926
N         0.71678608981846   -0.19899245703989    4.97691187112181
C         2.09915741906071    1.68043243457362    0.96097575945178
C         1.24552695716518    2.77667909526491    0.92531826436442
H         1.13697380229104    3.38733100375165    1.81955213915011
C         0.56245964728351    3.08866031991494   -0.23763332977770
H        -0.09744461024825    3.94358519774575   -0.26542949637011
C         0.72462674550823    2.30116866280250   -1.36541202367319
H         0.19151039084493    2.54212644724837   -2.27337875738904
C         1.56560691207282    1.19976567522070   -1.33172553103891
H         1.68587225203303    0.58418406057627   -2.21171770237103
C         2.25048607766321    0.88635761646918   -0.17114270326984
H         2.90101955326507    0.01719651030766   -0.13249012574496
C         4.88082704433828    1.83841992307705    2.27695480797375
C         5.64007134930056    2.17619823977441    3.39858178340867
H         5.19939435872031    2.09395929497676    4.40858627990020
C         6.94209834576805    2.61986787928410    3.25361176964253
H         7.52076627351335    2.89158833885862    4.12415017602409
C         7.49424356191669    2.73170780432510    1.98749270614467
H         8.50671344451841    3.08900831309910    1.87179784624985
C         6.74701520957403    2.39715463866490    0.87086185543594
H         7.17739456325732    2.49186791189460   -0.11579518470008
C         5.44299791871014    1.95248614517592    1.01303110316163
H         4.84930128028974    1.70760953766669    0.13869353271063
C         3.16294326549019   -0.62342460560531    2.63644850168831
C         2.05426765596534   -1.38946243378914    2.29060599230934
H         1.14840681127311   -0.89194137318888    1.95599401075222
C         2.10600270114739   -2.76803537464479    2.38454965534965
H         1.24254709667755   -3.35876765279831    2.11633303559246
C         3.25965470336628   -3.38912559376400    2.83530346409280
H         3.29749212631241   -4.46569804739774    2.91350873435030
C         4.36086293528639   -2.63089193087482    3.19605318923425
H         5.25720539287870   -3.11504467534974    3.55646322154575
C         4.31216624500234   -1.25090866963787    3.10308767133881
H         5.16989991588371   -0.65052681731044    3.39395360528112
As        2.51271815397388    3.93278133013359    6.47372987913442
C         3.45239880347955    3.56379280721981    8.12735990172447
C         4.30509180108490    2.46674007770425    8.16106903098758
H         4.41166560434354    1.85645584251598    7.26634673734565
C         4.98968445766800    2.15342773061549    9.32275518202797
H         5.64879572335854    1.29784183724131    9.34900470866259
C         4.83007550477785    2.94045081038449   10.45122363770945
H         5.36443712814938    2.69847941403180   11.35818844647953
C         3.99008234908574    4.04266060469005   10.41947920508329
H         3.87183826780091    4.65788365286326   11.29999492760648
C         3.30361128449243    4.35735744677499    9.26017434200016
H         2.65380511857617    5.22712738269348    9.22306406838523
C         0.66906298059842    3.40763329892964    6.81399060834898
C        -0.09090439700697    3.07004129819960    5.69278196103850
H         0.34882860505513    3.15323693937708    4.68244868669088
C        -1.39248910469873    2.62538469545273    5.83858581049775
H        -1.97162792245383    2.35358731160573    4.96839108522694
C        -1.94351435709484    2.51253097405375    7.10510407193807
H        -2.95558966480162    2.15432308793802    7.22143061713734
C        -1.19569279409962    2.84722823500118    8.22129506448868
H        -1.62527517840107    2.75185181701623    9.20823514782050
C         0.10794402210617    3.29276905452687    8.07831033458084
H         0.70219214533395    3.53770079104863    8.95226726157394
C         2.38766038261944    5.86946992998979    6.45486709939572
C         3.49753666079251    6.63462187821233    6.79884406636971
H         4.40378286313796    6.13634629476059    7.13129707250260
C         3.44648338451087    8.01327988615590    6.70578513958753
H         4.31086970334792    8.60332498200309    6.97250533282037
C         2.29228652423095    8.63534690197820    6.25778172091969
H         2.25499309713062    9.71198129042349    6.18016988704090
C         1.18980542951243    7.87801802638677    5.89901891849424
H         0.29300368495507    8.36296818105377    5.54083069377049
C         1.23781246789340    6.49795069671726    5.99111001097620
H         0.37905648555799    5.89827502376578    5.70181101495577
N         2.97883727816862    4.28237588454106    3.36385617783996
N         3.93388005510372    4.83832297502871    3.76442579928671
N         4.83017271735788    5.44850814337016    4.10849751772130

