29
CSD_code = NEHJAL | q = 0 | S = 0 | Stoichiometry = C10H8Cl2N8Pd | MND = 4
Pd       -0.05990962998248    0.00007063172857    4.16554028028891
N        -1.23852518176928    1.51301108014021    3.45562298194028
N        -1.73141985643419    2.29942399996747    4.17256820104308
N        -2.24519987100941    3.10791993506313    4.78631754260959
N        -0.03990692451009    0.85344201933900    5.93778543300552
C        -1.05757073947597    0.53962457722146    6.73872354075964
Cl       -2.08352215707415   -0.67184241448768    6.10538449869372
C        -1.27740770080383    1.14833081948684    7.96147076497386
H        -2.12207429718385    0.86239478736764    8.56504912609207
C        -0.38897335409638    2.13502729013081    8.35841605858444
H        -0.52990609943100    2.64447910500160    9.29845441143220
C         0.67642591243600    2.46178614965073    7.52971344213246
H         1.38239498886975    3.22674979302523    7.80847601359017
C         0.81733833102383    1.79650674350993    6.32631539646381
H         1.62963995899503    2.01837609010155    5.63963080604853
N         1.11931072666711   -1.51234480080331    4.87557290638897
N         1.60809230097112   -2.30195478105347    4.15907992604523
N         2.11868850090427   -3.11285983305264    3.54589995242080
N        -0.07990109434999   -0.85269995017316    2.39295965621852
C         0.93843170641488   -0.53959316889519    1.59259829392801
Cl        1.96487312498668    0.67117535009021    2.22647160465875
C         1.15852193907349   -1.14841824810267    0.36995441011301
H         2.00367696174174   -0.86298800103403   -0.23318619811851
C         0.26960158243320   -2.13445395747767   -0.02753055671904
H         0.41061934566483   -2.64385775118766   -0.96757892997962
C        -0.79645107251652   -2.46051421433359    0.80059253730951
H        -1.50281808933241   -3.22495223441805    0.52141442641973
C        -0.93755927560034   -1.79517156787375    2.00393310532773
H        -1.75027003661145   -2.01666744893212    2.69025036832936

