46
CSD_code = NEHLOB | q = 0 | S = 0 | Stoichiometry = C19H25PRu | MND = 9
Ru        2.35793420954150    0.37292112486098    3.75998997717236
P         2.38648397177482   -0.86301097506197    1.76709421099240
C         2.00630639072002   -0.62496648675475    5.68106175558605
C         1.67930979015082   -1.53713366570130    4.66573664095700
C         0.24820356842752   -1.75642344504760    4.34450739021593
C        -0.45677027113491   -0.81323514472690    3.73429575536907
C         0.17464355027989    0.47535955312062    3.35948136513619
C         0.51100702620215    1.38127496193003    4.37729225898067
C         0.23591316709973    1.04352616884548    5.79214486531872
C         0.93671169967623    0.09999979388676    6.40370991062125
C         2.93758220584301    2.29346293963707    2.84404839087589
C         3.22825650306121    2.32067750465070    4.26275605458652
C         3.95874359794861    1.33289665259227    4.90738650454824
C         4.50762582781014    0.17903949980710    4.22397139593420
C         5.60180627657994    0.20539115745314    3.27015331157538
C         5.93265489372906    1.03898437715523    2.25962479277483
C         5.17541711091792    2.04565508449308    1.59214766950196
C         3.90662160418033    2.47129786487087    1.77692435385538
C         3.89443297958016   -1.85090917829838    1.42399719254469
C         1.13448563115284   -2.15179870553783    1.36060265420892
C         2.28571795385496    0.09729498978532    0.20569825910669
H         2.88812958855272   -0.84300080022164    6.28677219874508
H         2.32463447366822   -2.40981821054594    4.54056616398379
H        -0.18483897856736   -2.70596473477920    4.63515426630559
H        -1.50537330728982   -0.93868778242278    3.49237214393549
H        -0.14436575155682    0.88695083878299    2.39909828500492
H         0.43640073950934    2.44582885304793    4.14609333962719
H        -0.54529722137503    1.60482399218893    6.28992687986216
H         0.77218282498807   -0.16887429257052    7.43995722215610
H         2.07391210780105    2.93528192063211    2.62298014002705
H         2.78396073930264    3.10770190614316    4.87547452111757
H         4.05282764653146    1.39521752774980    5.99343483762856
H         4.71181141124705   -0.62424292615746    4.94499007668818
H         6.30063716716437   -0.61317424994017    3.42677610989218
H         6.88684041304899    0.83466138696614    1.78442378994517
H         5.67272617912904    2.44271585075033    0.71293568563474
H         3.52271081638839    3.10312183134008    0.97898576693805
H         4.74819531025992   -1.17950808709526    1.37722043988813
H         3.79068872464542   -2.38679854577226    0.48100763472282
H         4.05136987743727   -2.56004613445021    2.23476018339158
H         1.37539037293740   -2.58350089694751    0.38937601117489
H         0.14103180527491   -1.71139369856120    1.32541882535382
H         1.14330549905565   -2.93330319768640    2.11652586844143
H         3.14578686128747    0.75975715866625    0.14778677792453
H         1.37904011298243    0.69938749311017    0.20930985191877
H         2.27630490018095   -0.57433927418643   -0.65227173016911

