51
CSD_code = NEHWEC | q = 0 | S = 0 | Stoichiometry = C15H24BMoN7O3 | MND = 6
Mo        6.01095913602396    4.58405639124327    0.45495315388075
O         6.97513267289723    6.08200653897626   -0.25855025854177
O         3.86430652350501    4.58400389795218   -1.55154043626067
N         7.51406386452302    4.58394345265915    1.95160626079092
N         7.20453513693575    4.58398877953519    3.26093238901368
N         4.99590229892848    5.95479227881008    1.75752629905446
N         5.06184544626972    5.81760220922101    3.09585323836341
N         4.75987272325192    4.58394160325667   -0.74017164365474
B         5.74107108273307    4.58400367673162    3.70923656139077
C         8.83674780930703    4.58398637321114    1.84583455577287
C         9.39961019418655    4.58400082323611    3.12793546501161
C         8.33153178668126    4.58399880691248    4.00233768037302
C         9.55884876373335    4.58400830976314    0.54718308015328
C         8.34915052068260    4.58400914156402    5.48904952938526
C         4.39605388378327    7.11852478870790    1.49825805998771
C         4.06252178841000    7.73775460338217    2.70411356795348
C         4.49934557219381    6.87973577498185    3.69817530410207
C         4.16996610328316    7.63010353782371    0.12229157870468
C         4.39470378001453    7.04067079045767    5.17181696679168
H         6.77471387830913    6.53217561295702   -1.08251309492341
H         5.64755566700057    4.58399893786890    4.88363642557003
H        10.44154176229427    4.58402967342699    3.37678519173609
H         8.84385450681734    4.58388650942799   -0.27606700686379
H        10.19274251937277    5.46713645730352    0.47294706158024
H         9.37828371337003    4.58396711179801    5.83781541172671
H         7.84487140093816    5.46525568929281    5.88190324540929
H         3.57012345690163    8.68000043542102    2.83331691944581
H         3.43352720501260    8.42982454471995    0.13981479548525
H         3.82157637562076    6.83230502601770   -0.52971173704475
H         5.10356124872663    8.02372620197891   -0.28340380295837
H         3.89320570245808    7.97709406688278    5.39952884908399
H         5.38257752396333    7.04959732725371    5.62858854264760
H         3.82758517207479    6.22101992135353    5.60884032629132
O         6.97499573308581    3.08595363412392   -0.25845209590066
H         6.77468032023520    2.63579533390274   -1.08243990811360
N         4.99601057096860    3.21317857470838    1.75751715748517
N         5.06188599099848    3.35039813060118    3.09584626007045
C         4.49939392501407    2.28825899107598    3.69817043469371
C         4.06256221597303    1.43024104297899    2.70410956808122
C         4.39609281656396    2.04947161597479    1.49825308199457
C         4.16993576655021    1.53792495949046    0.12228412316900
H         3.43345590094961    0.73823363675560    0.13979707520432
H         3.82156598023468    2.33576076315839   -0.52968849173983
H         5.10350661850001    1.14425997081589   -0.28344283328223
H         3.57013391858710    0.48800834138008    2.83331033691077
C         4.39475162603400    2.12731324812756    5.17181222448982
H         3.89315600841312    1.19094147578969    5.39952928732810
H         5.38263209071609    2.11827027436136    5.62856880052092
H         3.82773353357302    2.94702455986692    5.60885085033240
H        10.19292512992694    3.70100525799017    0.47304233686471
H         7.84479263346784    3.70281089476745    5.88190931243387

