74
CSD_code = NEJDUE | q = 0 | S = 0 | Stoichiometry = C32H35N3NiO3 | MND = 4
Ni        0.02463818917903   13.48628192368218    9.21499765744953
O        -0.42639231181917   15.22519082943871    9.61421549742510
O        -0.06442435868123   17.32417718402108    9.03519142235921
O        -0.77201709903005    9.81327398783466    8.33437135471450
N         1.47574790009432   14.20173250080003    8.24343525922577
N         0.40089886411644   11.73971102684682    8.78954946098463
N        -1.52815471306451   12.78465498303776   10.27281086248660
C         0.15699951288494   16.13425692611114    8.93523126692264
C         1.21082539878811   15.61271498154083    7.90064942699863
C         0.56728638150073   15.70496897931655    6.50144545086240
H         0.36122013727699   16.76131887558325    6.31843322655647
H         1.30619213987185   15.37864667415231    5.76666877899446
C        -0.73065111311355   14.89241578059225    6.33765313239679
H        -0.77248449499460   14.11333522558538    7.13276859836772
C        -1.95349736816538   15.79809574207971    6.47013089563256
H        -1.95407834468952   16.30860887153971    7.42922851000068
H        -1.94470661618316   16.55039175216194    5.68329068256683
H        -2.87537358187164   15.22632981165302    6.37913320679655
C        -0.75507345240292   14.17050110212938    4.99187456974751
H         0.05544026597996   13.44789711091397    4.92337727141211
H        -1.69329417189582   13.63460261332199    4.86377838480054
H        -0.65574307356089   14.88519466070809    4.17683747974377
C         2.40765974877931   16.55979283771871    7.97931720119649
H         2.00202262082176   17.55765646205147    8.14768958930898
H         3.04312864500649   16.30880090701968    8.82503149294810
H         2.99713773117152   16.57682257561877    7.06734259562828
C         2.49113896310391   13.53493580401901    7.80812092249774
C         3.53206370160422   14.10081694087816    6.90212489265575
C         4.70537497236452   14.66433312097986    7.39500858070185
H         4.85647249579932   14.73878927590283    8.46189508420933
C         5.67417036956846   15.12874532952328    6.52431236548766
H         6.57779765044660   15.57071018561284    6.91665141027725
C         5.48927761611047   15.02415225949980    5.15533830420079
H         6.24468629366196   15.39183271478714    4.47752257297283
C         4.34104209718119   14.43138767185714    4.66040287781308
H         4.19959191445791   14.32708433057841    3.59507019933327
C         3.37180573803663   13.95946596999151    5.52901576924172
H         2.49236293199928   13.46680047008723    5.14106719272899
C         2.70350764384401   12.12667151085219    8.11082128531988
C         1.65969791724180   11.26304148363382    8.53683925008901
C         1.97822978603349    9.91198952498215    8.76922821409179
H         1.19516330289004    9.24566498378441    9.08896853144018
C         3.24978304145026    9.42552056466417    8.60693811329973
H         3.45291821577844    8.38409728823299    8.80747881128178
C         4.27363658981320   10.27122793941978    8.19374183641196
H         5.27836942805957    9.89760013071677    8.06902721631134
C         3.99184577306441   11.59108344332380    7.94480320634680
H         4.79497111207293   12.23918601556256    7.63103882137624
C        -0.66763403496324   10.90650040186314    8.86248030651256
C        -1.83159116537047   11.45431428810216    9.69652371861145
H        -1.99780712423346   10.71971124468187   10.49597605073384
C        -3.11557297219015   11.60860341149358    8.85847321326633
H        -2.98561528444078   11.18184205250818    7.86509458996656
H        -3.94766984802806   11.09339413376007    9.33961388630175
C        -3.35647133744625   13.11575260717117    8.83791000861891
H        -2.78376392152375   13.58235438425461    8.03616641525901
H        -4.40631228766839   13.37699422905922    8.72399976971633
C        -2.78581847501381   13.54626000615091   10.17818699334962
H        -2.58666195990817   14.61568663047419   10.24448493100325
H        -3.45981213505708   13.24519100867161   10.99179375363708
C        -1.07441062056311   12.70849332841254   11.67588717012959
H        -1.74615156213571   12.05321800270416   12.24887252018960
H        -1.12856877837549   13.72058139336264   12.08727394522261
C         0.34792784219405   12.21341635995242   11.74842061444466
C         1.39062884144837   13.11097594014790   11.49806055261328
H         1.17746789898642   14.17303060403422   11.40036027597065
C         2.70251979773686   12.66312799820125   11.47590450527423
H         3.50580152805884   13.36050187000067   11.28859658375661
C         2.98689564875078   11.32721353721733   11.70600450659235
H         4.00807650220322   10.97834361851827   11.67849127203164
C         1.95972774686309   10.44136188833744   11.97785845421311
H         2.17935513516995    9.40190149666164   12.16960525664512
C         0.64650272074218   10.88112973956148   11.99679929710352
H        -0.14815654583698   10.17868854031550   12.20549267522382

