73
CSD_code = NEJDOY | q = 0 | S = 0 | Stoichiometry = C31H32N6NiO3 | MND = 4
Ni        3.31018914403824    9.36921260468182    2.30670253511336
O         4.88446699235363    9.70162495800862    3.19930687131641
O         7.08277402623846    9.54611396581000    3.04382191968556
O        -0.17778656172973   10.32818518058607    0.90722640046900
N         4.32886262065353    8.27177245174005    1.15425962966481
N         1.73310204027726    9.13955275922330    1.38906365472497
N         2.29686837845102   10.58091478724644    3.54047299954441
N         4.82042477119469   12.93707854895209   -1.02304115163236
N         4.75570500919633   13.78242048258528   -0.19434883031994
N         4.52376605281059   14.67547064025159    0.44842699316127
C         5.96265984544496    9.33815111265014    2.62559012024479
C         5.76633011393534    8.59343471227665    1.25811818010146
C         6.19106433790920    9.59146836338001    0.16383965527148
H         7.24475928498059    9.82314159404937    0.33291177081707
H         6.09815050644913    9.12056443203724   -0.81725847628641
C         5.37113257508799   10.87914871135288    0.21042223432424
H         4.29537200188711   10.63719136889060    0.26416981263041
H         5.64549817342765   11.44342396401035    1.10648321298465
C         5.62055586835876   11.75088312340922   -1.02266639836823
H         6.68509218873683   12.01535285965759   -1.08076745303801
H         5.35079517547970   11.21152743753426   -1.93410806657500
C         6.70793400479929    7.38985561072606    1.26923771126531
H         7.60726756836929    7.69987588591988    1.80149638574426
H         6.26161619757452    6.56073251772726    1.81307181875623
H         6.99199450828089    7.06640579874076    0.27215634159198
C         3.84546620347376    7.46213468148190    0.27178862033141
C         4.65969109764421    6.80984772285340   -0.79373905572075
C         4.76476501096321    7.45290886623436   -2.02210792198964
H         4.28063473742974    8.40811853278585   -2.16707932761494
C         5.46866200555415    6.86574605974443   -3.05946274155405
H         5.55372916607062    7.37902007917763   -4.00554798999274
C         6.05130193984937    5.62214361651177   -2.88799042644439
H         6.59924095860803    5.16441225367542   -3.69747418409274
C         5.91510506413614    4.95928106602826   -1.67948606963573
H         6.34994330806909    3.98005385627761   -1.54647822870546
C         5.21876518105436    5.54559766473878   -0.63785908375064
H         5.10800270961941    5.02219523091058    0.30024286505546
C         2.42738699306732    7.15078120969898    0.17665593997949
C         1.41453096786526    7.99925574794349    0.69731981204801
C         0.07544740338318    7.60046411543287    0.53079283498139
H        -0.70352999523249    8.23441635581475    0.91815710336171
C        -0.26215843929511    6.43302031682126   -0.10449066204463
H        -1.30227036995006    6.15973300661019   -0.20085469625161
C         0.72929972595230    5.60283013097974   -0.61665234995735
H         0.47112057662500    4.68097410331716   -1.11464942850951
C         2.04461569343208    5.96958282872425   -0.48106784978397
H         2.80696712303531    5.31496653601530   -0.87326209365028
C         0.81845268889076   10.12573948655740    1.57848166028488
C         1.14818790947753   11.06388887306262    2.74150721103064
H         0.24470436555406   11.11685410899086    3.36407274292199
C         1.52036188625251   12.47724552622301    2.24380488557753
H         1.42165698840153   12.55486556739288    1.16209713439363
H         0.86387931383825   13.22234467627570    2.69264091777564
C         2.95856898920935   12.66553770868674    2.72180005947368
H         3.65617933368111   12.25276883414646    1.99136362895479
H         3.21497362275624   13.70614267961620    2.90375032460961
C         2.99570553225758   11.80349990516958    3.97105827779429
H         2.43515148872751   12.28125028455437    4.78552997353333
H         4.00499169539147   11.56704605631793    4.30696244043908
C         1.88734742453212    9.77378202275914    4.70591344396862
H         2.75427635429712    9.70283190254314    5.36930051833840
H         1.06949049005160   10.27816289166933    5.23965192476744
C         1.47262289810430    8.39054550775642    4.27364103848212
C         2.46390728496217    7.45277994962692    3.96744873897515
H         3.50696931005743    7.67895120506979    4.18164945684213
C         2.11050382974922    6.20017998336440    3.48946574334701
H         2.87778515243416    5.47560361112064    3.25950634397641
C         0.77588880845347    5.87095405108348    3.31864767851940
H         0.50278440919946    4.89817611498167    2.93866227972895
C        -0.20743663655610    6.78918267503546    3.64099092497271
H        -1.24850438827695    6.53117124971978    3.51864295650942
C         0.13867771327078    8.04474305827955    4.11248008836205
H        -0.63683835023258    8.75796421676756    4.35328666920203

