48
CSD_code = NEJKIX | q = 1 | S = 0 | Stoichiometry = C17H24N4RhS2(1+) | MND = 7
Rh        8.56009659797487    3.68570453511126    3.84636960744434
C         6.13865209516067    2.75726309387524    2.09897766093924
H         6.09644474593810    2.05919882571030    1.25799001996007
H         7.20004779226151    2.86175868296353    2.47910093745841
C        10.59296410535629    4.22247319336420    3.28417440841252
H        10.56810613165010    5.29885222429012    3.11525441044460
C        11.61096812231363    3.75380516076315    4.29438458362969
H        12.19480086647326    2.94025108929304    3.86526491749538
H        12.29936933195197    4.57213786419819    4.50772614020163
C        10.94864612724776    3.31636840681895    5.61287315293190
H        11.60540668121427    2.63080131080850    6.15703669400831
H        10.80619709729218    4.19618667275343    6.24576493548423
C         9.60374856980921    2.66323461404599    5.42865651129139
H         8.97997437621272    2.70583506012676    6.32222748468478
C         9.26883469102672    1.73743626329217    4.45247784655058
H         8.39091131899267    1.11531059936200    4.64064689129092
C        10.26133586426912    1.14307749700303    3.47587801981835
H        11.23901592784446    1.09722901509128    3.95390126582512
H         9.96536553768883    0.11723912408962    3.25218913885652
C        10.34149464806209    1.93238858143605    2.15431983368483
H        11.33622302472589    1.82152028731911    1.71333772105165
H         9.62918044824108    1.51062364882830    1.44036765632207
C        10.03958697458605    3.40389897687265    2.31347356987662
H         9.67129448217081    3.87764473772802    1.40163297934314
S         6.59030099911954    3.58401996402761    5.20936268884862
N         5.32665646756636    2.25008308823776    3.16726603672724
C         5.45678972910250    2.58761878241360    4.48485298607625
N         4.45242144367578    1.97407461911689    5.15360205587335
C         4.22610309311335    1.42683917988749    3.03491131529011
H         3.93364843297830    1.02152815561781    2.08933117865455
C         3.69355951325447    1.25937902317091    4.26325525352126
H         2.84188444803418    0.69078596650542    4.57389493195039
C         4.22771721933885    2.08365947226289    6.56760891698268
H         5.18694779233041    2.19550635116709    7.07289010871876
H         3.72401871229478    1.18911098469323    6.92657708637737
H         3.61487427300098    2.95834091678340    6.79440818495347
S         7.71086185925694    5.59709739268291    2.77459091793016
N         5.69974222250689    4.05841964941863    1.67304820933613
C         6.28349508042402    5.25861303733730    1.96784890371400
N         5.51690210117744    6.22197022000419    1.40695607850247
C         4.55754969254621    4.30264570439151    0.93349185600582
H         3.92808235616071    3.50914710033021    0.59054126579332
C         4.45464697399469    5.63751460833030    0.76933063617678
H         3.71453266044196    6.21370937156663    0.25417892356636
C         5.81673912342094    7.62452571162220    1.47655894151933
H         6.01150638005428    7.90805490936369    2.51193621096347
H         4.97441180887234    8.19320223068820    1.09198157817338
H         6.70874205877598    7.85011409542741    0.88904934725487

