32
CSD_code = NEJKOD | q = 1 | S = 0 | Stoichiometry = C11H12N4O2RhS2(1+) | MND = 4
Rh        5.50800789472988    3.99019649904791    8.58460357660981
O         7.04535856960992    3.33751904079848    6.09128102753136
C         6.43656522751655    3.61254623853287    7.00537358254650
C         2.42155067299868    4.02462567411596    8.43769983707237
H         1.73062923482282    4.31812953250609    7.64171036803552
H         3.50380239891225    4.14507901694738    8.08817533673005
O         6.56415443416648    6.77621090882268    8.91162627728762
C         6.17231062920850    5.72855015196772    8.72123685237377
S         4.84084251348711    1.74491459803977    8.65856969055647
N         2.22071399092716    2.64104961639467    8.77689918183943
C         3.18060833734037    1.68270482764065    8.93707425443926
N         2.55053387414976    0.54024756773050    9.28369799428480
C         0.99064489118276    2.06797670440006    9.03884304912451
H         0.08253194347817    2.62997752831489    8.98154475536068
C         1.20286456031144    0.77135974821578    9.34755723854827
H         0.50517170809535    0.00190998598180    9.60602233610329
C         3.22208324932099   -0.70785353878012    9.51822376527913
H         3.62191167825520   -1.10356150293740    8.58281949709259
H         2.52093342249014   -1.42071930418783    9.94393646984352
H         4.05491084909985   -0.55466087685247   10.20593378984726
S         4.62610344351660    4.36989465967839   10.77920695168569
N         2.21078499125435    4.87735424514353    9.57424072528611
C         3.09692356311691    5.05007854199278   10.59713475779397
N         2.50570127783890    5.84741544009609   11.51103787375264
C         1.06261037909006    5.58194748672800    9.87115834849432
H         0.22708901734298    5.61291247545785    9.20390003926306
C         1.25263033426034    6.17951665478758   11.06733624542573
H         0.60008527561318    6.81259558947110   11.63214980601320
C         3.10937059561352    6.25984251696057   12.74762810902530
H         2.95121466630424    5.50709783499815   13.52229460750519
H         2.67325725791971    7.20286670293675   13.06861060801410
H         4.18259911803194    6.38097543504214   12.60057304722823

