48
CSD_code = NEJLEU | q = 0 | S = 0 | Stoichiometry = C16H24BN4RhS2 | MND = 7
Rh       -0.55546238907555    0.99692134123299   10.82452706866584
B        -2.93176860617914    1.47031495575480   12.93846519180550
H        -2.28786510185439    1.88239698922171   11.99569716366697
H        -3.76089825683222    2.22831494249556   13.32401794544384
S         0.49205856013622    1.35706246505077   12.90155147276914
N        -1.97531813105527    1.12125621532815   14.10716478914402
C        -0.63728580654933    1.02194606848214   14.11469773806805
N        -0.23529895910427    0.65259100080642   15.35798043787818
C        -2.41701210866707    0.79879701057209   15.36016354021521
H        -3.46171011198515    0.80054708904040   15.59253472017943
C        -1.35086623168614    0.51323568998243   16.14270833019100
H        -1.28847953607074    0.22347791803415   17.17110518217713
C         1.12679349266824    0.45921937136360   15.75843788378516
H         1.69241149323445    0.08655316052351   14.90351673725682
H         1.16823650799860   -0.25888348834632   16.57568311927705
H         1.57405287369156    1.40291987641470   16.08012816671516
S        -1.37109898819878   -1.15135627338392   11.65289137337987
N        -3.61542866548958    0.13960743806431   12.54254063636104
C        -3.00392380263570   -0.93644637533916   12.02293569089486
N        -3.92419301906303   -1.92476394476084   11.86420577292193
C        -4.93416224105235   -0.17344901309648   12.70662387788026
H        -5.62530682669863    0.54128346489954   13.10216948042370
C        -5.13738522099051   -1.44631565590654   12.29317329221755
H        -6.02335320728548   -2.04588003388690   12.26483114895147
C        -3.66242061322451   -3.23483170673505   11.34583998320263
H        -2.67419581025747   -3.22435686851612   10.88619571340054
H        -4.41497511034904   -3.50051414262538   10.60314768105456
H        -3.67066214847875   -3.97774377540735   12.14639223572721
C        -0.72630140717513    0.22415333464818    8.83203057533734
H        -0.80325334660342   -0.86112172113532    8.89941448799260
C        -1.85601157927446    0.97227536971085    9.15536959318692
H        -2.76640958019401    0.42889933368318    9.42018429004175
C        -2.11948856799083    2.37869437826925    8.66558776681498
H        -2.97223698059059    2.77217993759601    9.22383154258483
H        -2.40738195424257    2.34830580282533    7.60825115537298
C        -0.91659782080190    3.32200450966718    8.86246033763158
H        -0.29847095314873    3.34619492967282    7.96348839840315
H        -1.28898726965463    4.33506374431472    9.02592787939174
C        -0.05694757997147    2.91596755086320   10.04163552153637
H        -0.05749008429765    3.62411123426851   10.87042228222249
C         1.04831223869672    2.07150892527403    9.92933683316194
H         1.84824434267057    2.19205932717108   10.66114849634932
C         1.50149478544220    1.40351562851322    8.65182248634870
H         2.24896497050252    0.65192676894500    8.91567436918617
H         1.99503682874733    2.14435194985720    8.01241916941552
C         0.35261012264855    0.71888471560530    7.89227410981115
H        -0.09118894326476    1.40306330852983    7.16761019476127
H         0.75332074355644   -0.12934274754259    7.33348413679846

