69
CSD_code = NEJLUJ | q = 0 | S = 0 | Stoichiometry = C34H30N2O2Zr | MND = 7
Zr       -0.73588023304225   10.95967487963646    1.35233794615942
N        -0.59031876785303   12.15529994584461    3.43614165345850
C        -0.76757267416452   13.46023843207222    3.10450854376223
O        -0.59239918409140   12.85465091859354    0.81689183428063
C        -0.78136718375333   13.79256446022151    1.70382851252141
C        -0.96417438229382   15.12930926612933    1.35866228141200
C        -1.14415149699894   16.11430218384807    2.32667651704252
C        -1.13052103159878   15.81185752436801    3.66478424038114
C        -0.93761599537420   14.48194989754669    4.07669156348425
C        -0.90457448864274   14.08535728733695    5.42874445044023
C        -0.71391829183766   12.76907730282358    5.74022655665034
C        -0.56412239606664   11.81683236205708    4.71206677279783
C        -0.35788612560261   10.37492347484345    5.05805595935124
N         1.44411781263118   10.51936820738360    2.08712118146517
C         1.47339583023288    9.19350012644609    2.37844026811729
O        -0.88700106964588    9.16425449846926    2.17246105436349
C         0.21415516921701    8.49850483172160    2.39874102120300
C         0.23549713732300    7.13970282370763    2.69771933136504
C         1.42974354881171    6.47367204310773    2.96459484529628
C         2.63606922562451    7.12746429708012    2.95647647852830
C         2.68146090590068    8.50065459626291    2.66152611824846
C         3.87185050022178    9.25416322658339    2.60879891364281
C         3.81966015020242   10.58495748981939    2.29145803141969
C         2.57757653536629   11.19611291277168    2.03276117508465
C         2.49569616481486   12.65574429534332    1.70301630608865
C        -2.88887053194632   10.79775889025925    0.64621437499881
C        -3.31253083062047   11.54058893216034    1.81832206844018
C        -3.62399470916951   12.91593884454691    1.76450612585028
C        -3.95628129957261   13.62247781765588    2.90182441570229
C        -4.00815753474620   12.99264846603992    4.13725776220277
C        -3.73602455893690   11.63312722215503    4.21488315463840
C        -3.39749500957422   10.91577930322558    3.08533615705847
C         0.14529368981615   10.50562406171060   -0.69690513235844
C         0.40490781001755    9.07438915385733   -0.64401156306872
C         1.69882540037043    8.55989957916484   -0.45675834274554
C         1.92778704082171    7.20028706864950   -0.36816814887609
C         0.87655991671419    6.30479710647233   -0.45947275290265
C        -0.41013955398763    6.78829961606094   -0.65901077463961
C        -0.64451645764573    8.14258648617667   -0.75678682389388
H        -0.97412048618033   15.38594838416653    0.30991981537414
H        -1.29396228591459   17.13588647272375    2.00855897256428
H        -1.26766975920030   16.57816851730823    4.41219024593834
H        -1.03360904609605   14.82963960808779    6.20160021636701
H        -0.68409952177472   12.44215693046176    6.76853982830004
H        -0.91966594405901    9.74230146689012    4.37086792657327
H        -0.67854588141864   10.17498448202426    6.07754262500340
H         0.69952954345100   10.11461105105472    4.97358124303894
H        -0.70119976340593    6.60371222368382    2.70690168740078
H         1.39631876868894    5.41635168662466    3.18281006639315
H         3.55646364076896    6.60320671740047    3.16324972069594
H         4.81514524831128    8.76762862232579    2.81211579904327
H         4.72078341636199   11.17725618783071    2.23860125253391
H         3.43064686912303   13.00826055482963    1.27290790279895
H         1.67678746129338   12.83288860111826    1.00086618686946
H         2.29906989484719   13.23311675856280    2.60932977784087
H        -3.15728303763842   11.28346610823572   -0.29849196198088
H        -3.19038201123274    9.74372824121772    0.67102296387625
H        -3.60582515955702   13.41978251914578    0.80488046959210
H        -4.18527966161698   14.67668837592462    2.82782566793511
H        -4.26961114900563   13.54995056215473    5.02440048662738
H        -3.80079360358036   11.12991700679410    5.17106746912367
H        -3.22233261486008    9.84382577888712    3.15065263064601
H         1.05167713384868   11.08632673959423   -0.91286507116197
H        -0.65316111409342   10.76081960202925   -1.40823816636913
H         2.53661791137377    9.24729002794581   -0.40225734507776
H         2.93623545833012    6.83518608585509   -0.23002537876825
H         1.05588289231453    5.24268056295223   -0.38651724689360
H        -1.23373275396183    6.09299248921943   -0.74646064335596
H        -1.65216747610075    8.50998780273418   -0.92893921791760

