69
CSD_code = NEJMEU | q = 0 | S = 0 | Stoichiometry = C30H34N2O2Zr | MND = 6
Zr        6.96560504091495    2.42409417496940    8.83742100953921
O         7.26726650873237    3.68944562456761    7.40676934066350
O         7.62837339200323    0.93553354198984    9.87071668707353
N         9.17475546127699    3.26642766506159    9.16158049211590
N         7.51793674768645    0.74804147604429    7.23219094586686
C         4.83235138638306    1.94557733015637    8.13064979303359
C         4.61454886875745    0.61361104161793    8.66723534459270
C         4.33555981652710    0.41135695506109   10.03500636926428
C         4.13992029435703   -0.85041002376446   10.55132704398433
C         4.21101521274243   -1.97199164241261    9.73308866592901
C         4.46390152761549   -1.80014343128818    8.38159661514707
C         4.65244426497241   -0.53681606484273    7.85761154281340
C         6.10892131720110    3.74791221150376   10.48959418919854
C         7.21054331126046    4.45077221862532   11.11426171558015
C         7.87315796286164    3.93267136147095   12.24402633997142
C         8.89684684864418    4.62408021964769   12.85791651809156
C         9.31790367908409    5.85026809841397   12.36455579804735
C         8.69075562636952    6.37593240190461   11.24298107774652
C         7.65669096336026    5.69818338840887   10.63466001663322
C         9.94728495449353    3.13502586055221   10.23745809115426
C        11.01366026874275    3.97769807017311   10.50031449637013
C        11.27711093152922    5.00377338277028    9.60626421808340
C        10.46597142558050    5.15021107442752    8.49506831998806
C         9.40736746529249    4.26483571010076    8.30978532531142
C         8.46317392037949    4.29856104510140    7.10300791839240
C         8.20672173234194    5.74667982937577    6.63398037601785
C         9.21435790280052    3.52569356904522    5.98193360265575
C         7.18797857398551    0.70092657931746    5.94279278699783
C         7.12361522364084   -0.47903904248455    5.22438904343632
C         7.39561743944904   -1.66870790379421    5.88848700884116
C         7.70954585194389   -1.62551015943797    7.23408522860571
C         7.75783866802853   -0.39258924629970    7.88273804435613
C         8.17766003545249   -0.21139021003297    9.34536098135460
C         7.77907978053223   -1.42606366750258   10.20721187127671
C         9.73138699516766   -0.11892470423150    9.29066435663395
H         4.72669081494596    1.98147572468334    7.03906052520105
H         4.17866546011476    2.69227012001309    8.60109070190059
H         5.40754597149024    4.44087693052777   10.00221055655744
H         5.59132530045715    3.09539780081249   11.20481825265057
H         7.40395015952473    5.72440772018605    5.90085996471296
H         7.88589024707990    6.35508960429029    7.47558612534498
H         9.08768701316580    6.19013721342506    6.17834933825818
H         8.61357824082856    3.53500437914321    5.07537949201713
H        10.17794090439719    3.98623270518697    5.77350091914234
H         9.36837888786479    2.49344430263700    6.30172048787881
H         8.37030980550454   -2.30609612261995    9.96842012352965
H         7.94609197513518   -1.16291741782593   11.24887666991637
H         6.72208087014043   -1.64094478010045   10.07459275116815
H        10.02073333992938    0.76245129651772    8.71515121626453
H        10.15288122708522   -1.00781332426263    8.82511179223468
H        10.12184746736867   -0.03078375469019   10.30161300724597
H         4.25527698904188    1.27590637075785   10.68597097699539
H         3.92421843915423   -0.97265092530940   11.60413616001852
H         4.05710142105142   -2.95988243314346   10.14196313060734
H         4.50006952291871   -2.66130410961897    7.72673553826322
H         4.80448701968816   -0.42313047757487    6.79016861019480
H         7.54987259704027    2.97620875281482   12.63984478068498
H         9.37299796277459    4.20923828211548   13.73671141478569
H        10.11452308355943    6.39407706319583   12.85074452812356
H         9.00781558966079    7.33452174337546   10.85291422478984
H         7.15690954848642    6.13005874174645    9.77398712246340
H         9.69574185408859    2.31133812953031   10.89505589667460
H        11.61764324856368    3.83903991900315   11.38229561397086
H        12.09977041182213    5.68293459610757    9.77534179982078
H        10.64828886430665    5.94435045991618    7.78946071540892
H         6.97616336211601    1.65969888407426    5.48064718289931
H         6.86267605514859   -0.47342682712127    4.17756150010259
H         7.35312780496918   -2.61266230684080    5.36521122797679
H         7.90834914045247   -2.53547499519024    7.77567647744680

