55
CSD_code = NEJMAQ | q = 1 | S = 0 | Stoichiometry = C27H19Br4N2O2Zr(1+) | MND = 6
Zr        8.42245350713098   -1.61594192377729   14.06265074291840
C         6.03479617189931   -0.83636064320445   12.86415361432891
C         6.82030660480511    0.30075934823087   12.51456273487245
N         8.06740126446386    0.35262531422890   13.06677025030239
C         8.85852555711092    1.37672762843758   12.78816033843852
C         8.42773659186764    2.42054986045387   11.94042189767421
C         7.18082992053031    2.38984679581517   11.37678571978102
C         6.31926539467086    1.30606172961386   11.64782587246545
C         5.01422980937466    1.13818297272530   11.12627697935906
C         4.26212327322726    0.03002351814998   11.43953361786414
C         4.77217797925011   -0.94671552941937   12.29541558977245
C        10.21916459767371    1.41162439738680   13.39856467997443
O         6.53121422833482   -1.72308724328802   13.70133016619361
Br        4.28290996981521    2.44944402789437    9.96679714436075
Br        3.77617927795064   -2.49339506706058   12.72277552305692
C        10.57961183430253   -2.80666005836950   12.80551194357220
C         9.87258594296044   -4.00033717251258   13.13299517120109
N         8.60741931525702   -3.83679283932240   13.62716574402832
C         7.88375872687859   -4.91223126638416   13.90483217793799
C         8.39593679863046   -6.21263292230793   13.70565608497266
C         9.67354354113878   -6.39661400184079   13.25441328860853
C        10.47285467780274   -5.27404217755983   12.95481093312001
C        11.81262658503471   -5.32164215969151   12.50211844412556
C        12.51409130928145   -4.16990217120755   12.23268836183674
C        11.89663063316040   -2.92947259306543   12.38161444983914
C         6.50333495227342   -4.73293566441407   14.43904942256913
O         9.98201685170692   -1.64003630263284   12.91822324658520
Br       12.67857735019137   -6.99576239127918   12.28384406280712
Br       12.81885426787620   -1.31678200476364   12.05412840765133
C         9.31909368796216   -1.86524664383953   16.24820749677444
C         8.59354616954836   -3.03707549900517   16.58841837642553
C         9.22142774584199   -4.27179556406260   16.63132468124541
C        10.56480115523505   -4.39594161335710   16.30459324509112
C        11.29451026903872   -3.26221975253633   15.96278494006399
C        10.69526506015990   -2.01724790036060   15.93410771589677
C         8.63047562789250   -0.59040615863993   16.04175221477543
H         9.26744673923826    0.29049991009952   16.17735303851976
H         7.68968352172966   -0.49930433072780   16.60220052419781
H        10.40354862268483    0.50123554948527   13.97913963812906
H        10.31981897183209    2.29082305258418   14.03569032786666
H        10.97457228410974    1.48881146828516   12.61592100826899
H         6.30429031266535   -3.68833059032677   14.69086481182758
H         5.77643368075937   -5.04923239877173   13.68855793675149
H         6.35135401251794   -5.36111698740053   15.31515369699293
H         9.09893195180833    3.24075212362181   11.74106548189387
H         6.84787076068740    3.18355804799571   10.72483008590938
H         3.27262031718017   -0.09164331505616   11.02580161785616
H         7.76580765405380   -7.05890433603063   13.92838126371871
H        10.07806690372181   -7.38896451393141   13.12335362544114
H        13.54054933314436   -4.21852998923871   11.90255958060558
H         7.55524401764308   -2.94092877598688   16.90707658421077
H         8.66765959646698   -5.14511919952397   16.94529580841084
H        11.04667382456972   -5.35988502631160   16.34132619848164
H        12.34884503613496   -3.35332370170405   15.74431736356825
H        11.29690580888328   -1.13326531609803   15.73204612686565

