57
CSD_code = NEJNOF | q = 0 | S = 0 | Stoichiometry = C21H32P2PdSi | MND = 4
Pd       -1.91109145151305    0.54841989094943   11.99609282120545
Si       -0.18354696854627   -0.73677394006191   11.22440028554388
P        -3.51042573976185    2.12376934499114   12.73203126542822
P        -3.39932675125438    0.22620496795778   10.21490092050950
C         1.07461165411454   -0.86798030820127   12.68455194119988
C         0.23291694129996   -0.62091911062367   13.93025476653334
C        -0.74055827371150    0.53433148760671   13.69924107622778
C        -5.09936549771588    1.71443577322348   11.86509725290340
C        -4.85827197039312    1.36504655959221   10.40136339016215
C        -0.51470840102975   -2.45607904263743   10.45710318347884
C        -0.65746583003889   -3.57489557548131   11.27035962941188
C        -0.96297572557013   -4.81438646249994   10.73792862688724
C        -1.13754639226665   -4.95671477017986    9.37129281296102
C        -1.00230046226291   -3.85256422981551    8.54612058071143
C        -0.69642825268404   -2.61703766474412    9.08845943990106
C         0.52262187339487    0.42573874277603    9.86795427842255
C         1.42881350889305    0.04536823811301    8.88774537284723
C         1.85540827447184    0.94378297531396    7.92435706955063
C         1.38294383594414    2.24504105332839    7.93196526294658
C         0.48865887605747    2.64636858436913    8.91178363733766
C         0.06440727814625    1.74131605960305    9.86715420382103
C        -4.16224632162872    2.57118061582882   14.39079685404257
C        -3.15692670426000    3.79175391560709   12.04850055936647
C        -4.10752710291490   -1.35995138314551   10.81245801615942
C        -3.44101365402783   -0.03930482924173    8.39778474028029
H         1.83170994704329   -0.08901891400340   12.59262497241312
H         1.59269068077613   -1.82441607077376   12.73802428811565
H         0.87313982570659   -0.40333166016178   14.79692260606465
H        -0.33508281368666   -1.52682048377676   14.16405466205182
H        -1.41960772233755    0.61093449125984   14.56723875743228
H        -0.16729924728418    1.47945404031485   13.63695548557101
H        -5.80046839980480    2.55070151489101   11.96014118112092
H        -5.52752646310766    0.85170945854471   12.38661664723080
H        -5.74632818063062    0.90312676335020    9.95634732264926
H        -4.62905000533391    2.27178190487781    9.83211808650687
H        -0.52694484821336   -3.46873634370969   12.33757833029800
H        -1.06653657336186   -5.67313609575735   11.38697785194848
H        -1.37665115185485   -5.92348780698759    8.95103761469662
H        -1.13492367476940   -3.95798259370968    7.47766201687600
H        -0.58469311934616   -1.75848174010593    8.44085575364559
H         1.80456445288804   -0.96803463866018    8.88052730548280
H         2.55851814697411    0.63065466263011    7.16466331316150
H         1.71312488253696    2.94695317225070    7.17890804843684
H         0.12695116670151    3.66615498033932    8.92391665791606
H        -0.63527628787446    2.06206132288058   10.65533000926805
H        -4.94975183679864    3.31985046517587   14.31171155867953
H        -3.34593782300307    2.96436062999783   14.99524019435427
H        -4.55190605650870    1.67855894154886   14.87795026405047
H        -4.02820232013448    4.44196445798417   12.12678655951992
H        -2.85519816205680    3.69642706814144   11.00502316602921
H        -2.32663127567226    4.22518111569169   12.60577096922303
H        -5.12144991984418   -1.52243975244869   10.44607070066696
H        -4.09422549106461   -1.35113109077141   11.90792687753301
H        -3.45672839938701   -2.16735382894130   10.47497840775670
H        -4.44492218943481   -0.30663695832560    8.07017340608651
H        -2.75059281610940   -0.84358098945079    8.15321349680070
H        -3.11502106778365    0.86566308488313    7.88825550067497

