47
CSD_code = NEJSUT | q = 0 | S = 0 | Stoichiometry = C23H19NOPtS2 | MND = 4
Pt        2.64400305884959   -0.43986228527493    4.15522903633037
S         1.02425584999946   -1.97692907713351    4.07948323846403
S         5.07712577250527   -0.75986598034649    7.92578837907851
N         4.19128680914341    0.73823180050490    4.33804746678746
C         3.29157528196707   -1.08096406155659    6.02269935949753
C         2.01629056668543   -3.48997734585185    3.79605333321741
H         2.61543760171219   -3.66617749953343    4.68379821382272
H         1.37155779174038   -4.34187147456566    3.60935000216861
H         2.66263288066418   -3.29352283080857    2.94278098616880
C         4.41829687427759   -0.35161385378151    6.36026020044115
C         6.35322081239647    2.40431802308965    4.66841707946454
C         5.57025795875385    2.46634314915620    3.51369068967689
H         5.82518689938709    3.16366699434442    2.73304593430349
C         1.69036848355546    1.38564018875311    0.20839125822277
H         0.95522771797485    1.31697903691639   -0.58200964841517
C         6.02546504357596    1.47887304625466    5.65458465165672
H         6.59022332210728    1.41325918947890    6.57079919077394
O         0.21893423927034   -2.17995428233200    5.26875863186579
C         2.49595092323865    0.60261168027427    2.37177964078370
C         9.66918677416863    5.01824564205084    5.18532148115550
H        10.50969263778089    5.68266583568509    5.31981762572610
C         8.69013527209924    2.83824452559186    5.39495459214132
H         8.77544995591973    1.79840058315761    5.67407521890731
C         7.49969562130744    3.30587965731032    4.84289053974570
C         2.72966585905205    2.29259871580444    0.10525241829934
H         2.81430444074301    2.93122878763287   -0.76209077766523
C         4.92597980369841    0.64612665847556    5.46597861139047
C         9.76760807699169    3.68832640447756    5.55949230331209
H        10.68778950651571    3.31249549532976    5.98204555173995
C         4.47938068683434    1.61637998728117    3.36623140597524
C         7.41192269363115    4.64384841461724    4.46507296726830
H         6.48642250347235    5.02336696783775    4.05734283117716
C         3.54393468255248    1.55445880345459    2.24205779904064
C         3.65577271010316    2.37922034924061    1.12675482988503
H         4.46449964210055    3.09178884760226    1.05232109799680
C         8.48800662603832    5.49365438514433    4.64043271515460
H         8.40458608156807    6.53141301026521    4.35273096622632
C         1.58324353199404    0.56327960502118    1.32142975950313
H         0.74813403141507   -0.12129634723004    1.35585699946374
C         2.96638053348808   -1.97210973108408    7.07019288731575
H         2.11104109449084   -2.62621404818059    7.05543024262470
C         3.82097782260791   -1.91128792413398    8.13093253781168
H         3.78868961535463   -2.48072722603520    9.04073185874706
C        -0.13070508867083   -2.24010979477073    2.68108105328910
H         0.43398896897553   -2.35955665206281    1.76450721048878
H        -0.70697403561173   -3.12994787495317    2.90782832749023
H        -0.79570793641974   -1.38535749510860    2.61997930148436

