95
CSD_code = NEJTUT | q = 0 | S = 0 | Stoichiometry = C32H56B2Br2P2Pt | MND = 5
Pt        8.91243803980591    3.68080752622166    3.82263758000638
Br        9.49220604719865    3.90190956430836    6.36331929637787
P        11.12267046066442    3.04839475547451    3.64719865109346
C        11.48829764156509    1.45804057443622    4.52165910633445
H        10.67460445031113    1.29805019936352    5.23460485835681
H        11.42622624319081    0.66465576815757    3.77251421229621
C        12.80968486506647    1.37777205886459    5.27794793447280
H        13.66221440703973    1.57648100321836    4.63450247924788
H        12.92161311545662    0.37515509522827    5.68682951112760
H        12.82519847218695    2.07931935673273    6.10796757089495
C        12.27198838790438    4.27664234101948    4.40531899305509
H        12.15662719795363    4.22524294507019    5.48883884895023
H        13.29863403189719    4.00277780401113    4.15446019946682
C        11.95980421376140    5.68938966157259    3.93343974780640
H        12.02707670369911    5.76848075056295    2.84982577882946
H        12.65377280900678    6.40133041484947    4.37688327580665
H        10.95164069764538    5.96283948118435    4.24233131690659
C        11.86018467390620    2.84567599445659    1.95935443662603
H        11.18534596753012    2.20652516389621    1.38915095651913
H        11.83507602301170    3.83307154094271    1.48913404177442
C        13.26494636586510    2.26381027415395    1.88359924370466
H        13.98767103459904    2.87108414188707    2.42393754860794
H        13.58018827967486    2.22247156784184    0.84233653550413
H        13.28668556442346    1.25163962176890    2.27870752638848
P         6.81856326821620    4.56874740802207    4.36168370556749
C         5.55110016628599    3.59974805443209    5.29958458936583
H         4.62499807474251    4.18229263772014    5.27957240037455
H         5.37493956871139    2.68167864912786    4.73513190315767
C         5.91088382152528    3.26286017891211    6.74101996255181
H         6.89140785468456    2.80074366489834    6.80546518144803
H         5.17613177629628    2.57167054489365    7.15091209846184
H         5.91923830321321    4.15234855129905    7.36611441040207
C         6.88565957291443    6.07261628641287    5.43474755035918
H         5.85964649430573    6.41869619094454    5.58687846459220
H         7.27796794132331    5.73637177475915    6.39728483186462
C         7.76800705968312    7.19995939156256    4.92005049763201
H         7.73124388015071    8.04182238749396    5.60933218307920
H         7.45155493502908    7.54564663888119    3.93859825701232
H         8.80205433397802    6.86798427783042    4.85741272696176
C         5.77635519881756    5.06473606098540    2.90447689193365
H         6.44585153172605    5.41086653004789    2.11479608377783
H         5.32790955297254    4.13162572800446    2.55370573447302
C         4.68653452283030    6.10343430449744    3.13710031606123
H         3.99819675748023    5.79669535464935    3.92121555660632
H         4.10963943927187    6.23284013198452    2.22266006625302
H         5.10804602083268    7.06910306500236    3.40514204678295
B         8.53478681467362    3.32398108868323    1.77322636286237
C         9.10085095815197    4.14669200106919    0.57622417077912
C         9.46187393021618    5.51231459296461    0.66450049269098
C        10.13153466196862    6.15560717658283   -0.37438368661687
C        10.49266860817659    5.42888534260772   -1.49603699560786
H        11.05248152768119    5.91473414286066   -2.28358252602341
C        10.12603933174420    4.10321384730034   -1.64452084757737
C         9.38377352032771    3.47536814135550   -0.64178447875426
C         9.10054881369821    6.33331918041283    1.86190084838025
H         8.20130559959406    6.91599585715575    1.65710044580676
H         9.89307442702840    7.03182725730425    2.11666448168993
H         8.90908786969170    5.68572650421238    2.72388122177598
C        10.48536214007382    7.61248310318841   -0.29958081874977
H         9.60311524929215    8.21714468417480   -0.09410114703203
H        10.91773991262620    7.94397488823347   -1.24061716870157
H        11.21257675784918    7.80079050173170    0.49121373083338
C        10.52647046234239    3.37656801940675   -2.89509257161955
H        11.23027548331450    3.97512741353154   -3.46879691548355
H         9.65967272219822    3.17938901853692   -3.52675219543235
H        10.99381716399263    2.42200340772415   -2.65957361892751
C         8.92320020294872    2.07787764449684   -0.92906190799592
H         8.60705787404242    1.99655638269505   -1.96677233125795
H         8.08719668370981    1.79203433012081   -0.30144086890544
H         9.72773707691032    1.35853658533426   -0.77157654815932
B         7.89693918760284    1.88703029631562    2.07553891059501
Br        9.13256076016265    0.36384332586496    1.98527589095885
C         6.45431815804448    1.42873967844284    2.53926724646424
C         5.33974835723522    1.60480622826089    1.70395099851746
C         4.11096280778593    1.03275066071485    2.03992953577449
C         4.00486763625804    0.29515472151416    3.20715416553075
H         3.05874259387166   -0.16793827451406    3.45257944058830
C         5.07551492633760    0.13847117280754    4.07281316478909
C         6.29842797790902    0.72577678377645    3.74878508379083
C         5.44221482247877    2.37768051083329    0.41726892368545
H         4.55712513042220    2.99312561961181    0.26751841261149
H         5.51265494111547    1.69430538689387   -0.43047738433619
H         6.31438226497359    3.02583160271377    0.41151293664990
C         2.91118675134609    1.18447909595637    1.15157871598481
H         3.13441152584074    0.85518507592828    0.13762425439356
H         2.59073741930829    2.22614496133431    1.10290645451022
H         2.08187431544553    0.59279918717569    1.53176457321161
C         4.90159573647763   -0.66105985446456    5.33005676337326
H         5.67054248741906   -1.42790734496448    5.40948926363803
H         3.92768050065248   -1.14500614125963    5.33848452334494
H         4.97099053915412   -0.02331528859943    6.21223143892565
C         7.43777343838459    0.62770158142774    4.72329131752874
H         8.12313555916988    1.47739370660014    4.60766842641800
H         8.00389837135591   -0.29237191986075    4.57362271972922
H         7.07304023053417    0.62887269846495    5.74704198640175

