57
CSD_code = NEKDAI | q = 0 | S = 0 | Stoichiometry = C23H26N2O5W | MND = 6
W        -0.78575928501318    1.21938574352529   11.68984838592026
C        -2.43189450292775    1.50890176914603   12.77511412448004
O        -3.44613259074241    1.53051625010972   13.30485472748419
C        -1.71494461206360   -0.37426359518878   11.03219769328441
O        -2.25003777322830   -1.34669550832655   10.71931050972473
C        -0.09555300355060   -0.00134060487716   13.10231913336833
O         0.25548004867886   -0.74896964732680   13.89393080918618
O         1.54364362779644    0.34928582789773    9.79124848017835
C         0.72017516708149    0.72921651688709   10.49909454535003
C        -1.58003231764575    2.72118513751077   10.33793641176403
N        -2.24923126132499    2.57348679079085    9.21157923072554
C        -2.27052263534499    1.31504030407197    8.50186806023070
H        -2.09635297733973    1.49510904338722    7.43932352299679
H        -3.23675101967897    0.81884597518934    8.62158632431085
H        -1.48924715815772    0.66196743060638    8.88408454869421
C        -3.01860359659399    3.61229347891049    8.53987368504597
H        -3.68666660648374    3.14870116130127    7.81731660735912
H        -2.36595327065646    4.31093966825671    8.00965394817866
H        -3.62907587088252    4.16582143744973    9.25303088199981
C        -1.47662514165357    4.07617857923553   10.84044481121170
H        -1.93009677531760    4.90824584146834   10.31309567705824
C        -0.73367283446231    4.35136621337512   11.93806650174078
C        -0.57421424995134    5.71338569736709   12.45591887767157
C         0.58959680313507    6.07259749097099   13.14042705923785
H         1.36578343178823    5.33752683388475   13.29339915651469
C         0.76091183240579    7.35638748686017   13.61961733493333
H         1.66996172560164    7.61622208299963   14.14204807391511
C        -0.22973113494321    8.30771240670814   13.43819034806788
H        -0.09707635380904    9.30971894672743   13.81758786736012
C        -1.39642052971005    7.96198073008761   12.77644881092180
H        -2.17960550412016    8.69412261009390   12.64469225514096
C        -1.56768142091272    6.68058242932302   12.28991928601296
H        -2.49512845874481    6.41976227396656   11.80178685666705
C         0.01800635263071    3.27238394242139   12.63769471452813
C        -0.30581776784625    3.03754054668661   14.03961199394700
C        -1.50899731459976    3.76207971128768   14.60876100957642
H        -2.26555004614318    3.98274282138791   13.86156842666615
H        -1.16535629228970    4.70114017412678   15.04409336960909
H        -1.93853174957018    3.16073089628757   15.40728287793309
O         0.37811152024336    2.34324441976274   14.79424013323021
C         1.28183990027659    2.88198824331260   12.11833565843656
C         1.81267332779814    3.51307278194914   10.85414619402109
H         2.53601651557535    4.28466300958689   11.12419548333004
H         1.01609150098949    3.97610466163642   10.27927124417235
H         2.32005201184073    2.79136402757676   10.21843069173140
N         2.15261836963161    2.22982576264229   12.89688695721387
H         1.77828525091589    1.97030278800916   13.81795438594690
C         3.48335992662153    1.75614498968010   12.59670230492998
H         3.68535314798680    1.88006620903514   11.52926251652997
C         3.56895199186181    0.27312252860472   12.95116111476385
H         3.35195176028923    0.12569314616134   14.00646588631664
H         4.56420615283321   -0.10937365418849   12.74118664617101
H         2.84729168339533   -0.29594585079022   12.36932533525986
C         4.50079205220589    2.57229752986115   13.39805103246469
H         4.44158366754630    3.62587928095094   13.13378154645387
H         5.50891236120011    2.22094908543068   13.19680679447888
H         4.30121392536626    2.47106614617001   14.46206913553346

