66
CSD_code = NEKFAK | q = 0 | S = 0 | Stoichiometry = C27H30N8Ni | MND = 4
Ni        9.02270728196261   -1.30669141659990    4.19313882005362
N        10.19952699100987   -2.57250980037597    5.11237349664489
C         9.98376870392756   -3.05557640582880    6.30769303119164
H        10.65966974717623   -3.82574558109774    6.68607125431352
C         8.98521943480348   -2.63065466411352    7.17473392954802
C         8.63152268993303   -3.02217759712902    8.50222474571610
N         7.71782840643172   -2.23199481775274    8.99150714287906
N         7.41529088960020   -1.30596381610449    8.02784842425191
C         8.17083431516159   -1.49840207338600    6.90322423488609
N         8.22127085549239   -0.75205365652978    5.82602791021155
H         7.68620655774542    0.10895874621217    5.91586020179371
N         9.27907834019783   -2.18072727650407    2.43536395276362
C         8.66417020929363   -1.84910576714246    1.33436891646624
H         8.87384508447302   -2.42299473822730    0.42897733963976
C         7.77092226301284   -0.79121849327050    1.20263943253082
C         6.99958451567646   -0.31154821524683    0.10150828508713
N         6.36585041644844    0.78202467728801    0.42159234125431
N         6.65818199653726    1.06242557933109    1.72954406799016
C         7.53561182957194    0.14521626287890    2.24466435959198
N         8.14080550415368    0.15475575236118    3.40788145802972
H         7.92500842476284    0.97817572886428    3.96728699328335
C         9.18677183533149   -4.15963602149635    9.27949946599714
H         8.70932334194316   -4.19836041614403   10.25412840073372
H        10.26174156391188   -4.03901867257981    9.41123738960462
H         9.01020684210601   -5.09790621685327    8.75506381875968
C         6.88564516396281   -0.92092691014699   -1.24820421425414
H         6.22379656226566   -0.31763581521551   -1.86253545967249
H         6.48500575374223   -1.93118229515869   -1.17383515506693
H         7.86516437439053   -0.97598680465080   -1.72220401836949
C        10.25527012631193   -3.25201921821878    2.29417010297676
H        10.51311477678208   -3.36237829433326    1.22779142055770
C        11.53831459725779   -2.84306202558582    3.02385952553913
H        11.72577452999002   -1.78999425994241    2.79302216398871
H        12.37773780791595   -3.42979129118168    2.64657739464698
C        11.46760256958380   -3.01959560066981    4.53888557491790
H        11.60215297735445   -4.08779394673144    4.76965818550257
C         9.66922955918262   -4.58388799823201    2.77155076888782
H         8.86873220112955   -4.89098430445439    2.10160715529666
H         9.25239959954031   -4.47929652498823    3.77017489346199
H        10.43568199604758   -5.35493961459625    2.77583855202366
C        12.61245181294148   -2.23424439472018    5.19135678696132
H        12.64822050949636   -2.42224198727629    6.26217752319847
H        12.45700550995911   -1.16831218544246    5.03600604273884
H        13.56574211286282   -2.51988430026452    4.75317178846902
C         6.40179177652598   -0.37295051534812    8.24635628733512
C         5.55712160780953    0.02392426739867    7.21143850717681
H         5.64345284650238   -0.43217628979425    6.23603127251192
C         4.56747422151036    0.95940224178973    7.45181918142131
H         3.91241776443580    1.25884543877343    6.64640752845555
C         4.40050471298001    1.49241014258839    8.71885078753366
H         3.62627112801055    2.22257775933314    8.90074051374034
C         5.21640876863221    1.06879132525256    9.75611818555518
H         5.07542999011603    1.46678497611992   10.75008214599533
C         6.21398312474105    0.14169587068792    9.52655792471225
H         6.85258262697378   -0.20683671009076   10.32252136691016
C         6.09306555974551    2.18123091965064    2.34160319147873
C         5.75937640728207    2.17489076774802    3.69440293799444
H         5.88087461305865    1.27812911009589    4.28278581673291
C         5.21923558206173    3.30741814708557    4.27585712980487
H         4.97344795495503    3.29855487885425    5.32792563930462
C         4.98293991670775    4.44039344127835    3.51614483055052
H         4.56062349613486    5.32126421901990    3.97562553089659
C         5.27455642531737    4.43204370642230    2.16118754782630
H         5.07348795257213    5.30674619886625    1.56067958837313
C         5.83001315174838    3.31293081983825    1.57324552900417
H         6.06074979079178    3.28621595568814    0.52029011166360

