44
CSD_code = NEKFEO | q = 0 | S = 0 | Stoichiometry = C15H20N6NiS2 | MND = 4
Ni        2.87955380892838    1.65608583654061    5.86713929543997
N         4.06459109338553    0.18765041577248    5.25458423177375
C         4.61110596348104   -0.80142462662669    5.88187588468181
H         5.24379010846311   -1.49749293923685    5.32402967920143
C         4.48549268057657   -1.04735962896295    7.25721476577389
C         5.01940707142250   -2.11494697902425    8.03887025792621
N         4.69996221667943   -1.96030959724099    9.30045547381841
N         3.98622968677091   -0.82297506569315    9.39504829252410
C         3.81555859433372   -0.23131164965881    8.19750859945862
S         2.97488102612413    1.23171189719047    8.00688261261636
N         1.90646635686995    1.65924359981274    4.14170875373657
C         1.36993840258857    2.61129890373368    3.45162545317214
H         0.87009521751498    2.36613058893107    2.51038370153997
C         1.34643154561011    3.96166134200772    3.83057887632653
C         0.81742097711506    5.08907740763062    3.13423782617392
N         0.96810475672545    6.17764809461849    3.84830245515704
N         1.56407349966471    5.81967664659081    5.00106783885070
C         1.82405866837240    4.49929684754182    5.04779756326982
S         2.54804657326457    3.75151202869803    6.38962117697087
C         3.48499992983074   -0.36315228668392   10.65484841025219
H         3.85485844952719   -1.03563233673348   11.42467024243528
H         2.39320582682227   -0.36308682288132   10.65359442031580
H         3.83110189844442    0.65423624690393   10.84407574190191
C         5.82051022272448   -3.27251368647854    7.56450249676424
H         6.05796659898290   -3.91165977984133    8.40962403654778
H         6.74700819882356   -2.93104192773742    7.10386806493878
H         5.26218036280255   -3.84767649064015    6.82669303353073
C         1.86112642248671    6.78637401864634    6.01466822679429
H         1.57335025026214    7.76367899987465    5.63520366743381
H         2.92731707030330    6.77206369010335    6.24739170721583
H         1.30444015648554    6.56014368428852    6.92620000268614
C         0.18245477152708    5.10792633783646    1.79137678938713
H        -0.08627533580035    6.12923493241823    1.53859821884953
H        -0.71624165127739    4.49167494795189    1.78738731683920
H         0.86752757198498    4.72075804784543    1.03792338876506
C         1.80473259823912    0.31326418860352    3.60254499351743
H         1.01719998786181    0.26243170455116    2.83818540166603
H         1.53150930416393   -0.36281899502556    4.42119070760521
C         3.13338425900883   -0.15357511362647    2.98683503540282
H         3.11548606160026   -1.24230769457323    2.91352171407138
H         3.24469550461690    0.25637988244655    1.98155962711218
C         4.33574325638816    0.29834077222930    3.83092750068822
H         5.21307268222369   -0.30376786794201    3.55726982224575
H         4.55733735406449    1.34825242584913    3.60630669461964

