74
CSD_code = NEKGUG | q = 0 | S = 0 | Stoichiometry = C35H31N2O4PPd | MND = 4
Pd        3.64311477730477    5.44189260422013   10.65943658755552
P         3.51417086789878    7.66612557718845   10.49839788174646
O         5.69395710233689    5.15923806594031   11.35847622024485
O        -1.44806093245360    6.06265009239071    8.83225905786482
O         0.41889930061949    1.61301931924144    9.44198302131891
O        10.86590824198378    2.01075054468939   13.21944365022111
N         3.80925391867146    3.50191828864242   10.73749167010700
N         4.96935456451001    2.97894954837613   11.14875112422896
C         1.78695828465039    4.96293268192364   10.01614778951494
C         0.72200410468847    5.75030520086888    9.63775922450877
H         0.76496809557780    6.83145932545979    9.67960999934772
C        -0.47136555096701    5.17551333748217    9.17996411797244
C        -0.60462102881636    3.79601422744071    9.10244793568106
H        -1.52309520459325    3.35802989910938    8.74921583326424
C         0.45477255538520    2.97660510759934    9.48346255563803
C         1.64849663822061    3.55288713457178    9.93887856908104
C         2.80180651737456    2.79190215438465   10.35226449396682
H         2.83205054302029    1.70749342933374   10.34439024045997
C         5.87432356020161    3.90184241281763   11.44642821308459
C         7.18620346214016    3.40928082681291   11.90988122739215
C         7.44937748999349    2.04639037377252   12.04696639993984
H         6.67197075527322    1.33960540827493   11.80502235080666
C         8.68168613337398    1.61982494395821   12.48400546673494
H         8.90404680653998    0.57010584366053   12.59636163683098
C         9.68468084966773    2.54255331358921   12.79579570180699
C         9.42653000685224    3.90275409676649   12.65941663732191
H        10.18076824434481    4.63907048108808   12.89074133317594
C         8.18600432202272    4.32429394496994   12.21972126077708
H         7.97659355872999    5.37838661143528   12.10794913379779
C        -2.67506866246153    5.56997408736781    8.35568849952432
H        -2.54711915746070    4.98760125049380    7.43698211875401
H        -3.28235425115396    6.44801011303040    8.14054835729893
H        -3.18369168525339    4.95656425734879    9.10715409463263
C        -0.75059611634606    0.97633094097589    8.99291453839262
H        -1.60861180911417    1.20873526662872    9.63273266057057
H        -0.54325762859412   -0.09147194561249    9.04735431364917
H        -0.98496961530105    1.24425594650847    7.95713582426535
C        11.91676478469694    2.88395120700564   13.55081545752643
H        12.22616929334273    3.48692677216105   12.69066411510423
H        12.74441280838628    2.24655452044097   13.85862675812956
H        11.64416799737931    3.54638972586277   14.37909985240307
C         3.03725253784965    8.10799792942456    8.79960380993466
C         2.28368465151717    9.20555852074832    8.40714653389307
H         1.91584575948664    9.90403410885193    9.14478867209248
C         1.98700803261920    9.38902224558112    7.06675356677705
H         1.39639406979389   10.24007908235271    6.76011538039714
C         2.43975541969033    8.48488479027577    6.12080366915839
H         2.20423875184250    8.63476474519465    5.07746083401407
C         3.18342056714380    7.38049313364583    6.51026410962580
H         3.52360294308119    6.67025690128578    5.77125505510244
C         3.47521532307494    7.18846998103487    7.84644789838627
H         4.03866019285906    6.30886634364999    8.18228130168750
C         2.39115652749454    8.51320244901281   11.65139636230990
C         2.32817609055895    9.89525637331196   11.79334773974821
H         2.96882565554507   10.52907611356581   11.19537800021074
C         1.46118855263882   10.45050015027887   12.71717105325281
H         1.40535167295442   11.52401588263963   12.82564546754178
C         0.67108719558980    9.63293769812799   13.51012359140119
H        -0.00300755094670   10.07302598794047   14.23020056070479
C         0.75528526746053    8.25448594964352   13.39312475134513
H         0.15236315797884    7.62059935457246   14.02626314916453
C         1.61646779850671    7.69376783448983   12.46760338039751
H         1.71032603103843    6.61122494733691   12.36143351692537
C         5.04702888771111    8.61453431057244   10.77014330943425
C         5.74450709291196    8.29832568754016   11.93364324844604
H         5.35848147318787    7.51636260354060   12.57886192107635
C         6.92103170391696    8.95469219846742   12.23645238858745
H         7.46435124526131    8.70676231895334   13.13670993884496
C         7.40932516237704    9.92729907686531   11.37656164656223
H         8.33246578190222   10.43835909261294   11.60829698053788
C         6.72158287834745   10.23822320250423   10.21564145648531
H         7.10864556322265   10.99119913810436    9.54415621524671
C         5.54035567109627    9.58448760321464    9.90715223637618
H         5.00862194952508    9.82041730646391    8.99528632970681

