35
CSD_code = NEKGAN | q = 1 | S = 0 | Stoichiometry = C13H19O2Pt(1+) | MND = 6
C        -6.57941562907403    1.24854739817717    9.57052380853770
H        -6.61390319191309    0.19933369268747    9.86318877131269
C        -5.78945728528203    2.09279337295661   10.33270913852515
H        -5.28021496500346    1.66335983661289   11.19564197820344
C        -5.85535340631962    3.59853626442633   10.34456823965063
H        -4.92932687428861    3.97126481416924   10.78890150848073
H        -6.66979613994996    3.91077419534280   11.00407997342459
C        -6.03690856942428    4.23721363121661    8.95153352764040
H        -7.09139273584621    4.30927489657591    8.69007270311538
H        -5.64639180288749    5.25407980892032    8.99225224423910
C        -5.30399034350770    3.48052255042968    7.86652645129212
H        -4.40803539664541    3.96752101934727    7.48211573050817
C        -5.87549434965898    2.49444953235818    7.08007332441827
H        -5.41506562576579    2.29147073208733    6.11303899637471
C        -7.26982319279154    1.94057850466573    7.22492113005618
H        -7.30980630977341    0.98991219732007    6.68763199159460
H        -7.97131592486005    2.61468137882232    6.72574604364011
C        -7.71441484101290    1.71124720157978    8.68486005588627
H        -8.49122533024996    0.94653356744060    8.68535009498502
H        -8.15367623569153    2.61444957291189    9.10530081787481
C        -2.71394764086966   -0.54287261697951    9.38321390207668
C        -1.89901006185143   -0.28900972040303    8.28211849073296
H        -1.00227213422985   -0.87845043299447    8.18528948817597
C        -2.14710159770598    0.66260864957317    7.29506717538739
C        -2.28112822594764   -1.61103239870529   10.34700447319393
H        -1.33511062762205   -1.33008200584470   10.80488513300077
H        -2.13206955371173   -2.55022673707693    9.81999532875290
H        -3.03109724233638   -1.74211461370234   11.12190926197665
C        -1.15246567798456    0.78945517605277    6.17618305775792
H        -1.44887460177033    1.58660693947691    5.50004897629646
H        -1.09591458465204   -0.14808355663475    5.62690944401273
H        -0.16490610943717    1.00137164734332    6.57939652466908
O        -3.80591200905825    0.04560715511440    9.66870195268424
O        -3.14582593492401    1.44941357754831    7.23565173584300
Pt       -4.64835584795282    1.51826476918399    8.57928852567897

