70
CSD_code = NEKHER | q = 0 | S = 0 | Stoichiometry = C34H28ClN2O3PPd | MND = 4
Pd        3.32888785794467    5.45361638955708    3.04593435373870
P         3.06775037435051    7.12255860302951    4.51380310978127
Cl       -3.23003103783642   -0.21710199484597    1.92531879999940
O         1.41674336248145    4.38390584054396    3.18575415998542
O         8.21318838343768    8.00891532783277    2.43388195461168
O         7.34656153348663    3.88739207510961    0.21815022188362
N         3.57893049558156    3.95042957479052    1.82775161723381
N         2.57172390162604    3.08212688335598    1.67131875516513
C         5.20398276341270    5.88091185820561    2.41611167836363
C         6.03069543410318    6.95112308397335    2.70575817787610
H         5.67132919878558    7.75126452825365    3.33845471182955
C         7.32418121077378    7.00435625773120    2.18556831702922
C         7.79453756944428    5.98912692154128    1.35498295665151
H         8.80170265082526    6.07868370688092    0.98353548795331
C         6.97867885766805    4.91731892070456    1.02843980098387
C         5.67719398280144    4.86027019592458    1.55991648125481
C         4.73574768760274    3.80724252311823    1.27274034247184
H         4.96487592764804    2.96400534588964    0.62982478782627
C         1.50950476974184    3.38814058089819    2.39950981582321
C         0.34821583584856    2.47871921931089    2.27231520461408
C         0.36853768531660    1.39779394934689    1.39495176859084
H         1.25372848783668    1.22324118887024    0.80464415621528
C        -0.72971183584804    0.56779220087770    1.28659322283351
H        -0.72174152998035   -0.27144659803845    0.60840694015719
C        -1.85275186723465    0.82106709839317    2.06050356581774
C        -1.89015793312601    1.89133794054679    2.94038660924104
H        -2.77241177210498    2.07153451204889    3.53502969070236
C        -0.78756049612805    2.71650373298586    3.04204723907496
H        -0.78828137613335    3.55634608583026    3.72115513750744
C         7.82626797268401    9.05074845974092    3.29526714725059
H         6.97326205075411    9.60930197430091    2.89546970758378
H         8.68953985544034    9.71150925859965    3.36201812824852
H         7.57600634718420    8.67598774410900    4.29366906635340
C         8.64014096388237    3.89630741602357   -0.33526734773628
H         8.79778065809091    4.77162933378163   -0.97313738040280
H         8.70784873856521    2.99276675460916   -0.93942780296613
H         9.40965567604920    3.87057786794359    0.44267662066753
C         4.51529746345350    7.24714669810039    5.61127411185138
C         5.06085721807034    8.41239497818705    6.13283966420232
H         4.61272954198902    9.37022466561804    5.91033167095418
C         6.19823552466869    8.34408576637512    6.92104128032568
H         6.62752457739333    9.25105685289570    7.32195891387119
C         6.78837473652646    7.12059877531152    7.19161117607845
H         7.67641063210311    7.07602492436761    7.80442928221368
C         6.24984575364392    5.95479537332311    6.66671352998127
H         6.71954871784882    5.00398337668913    6.86925857164481
C         5.12115480217366    6.01890233454283    5.87326472628277
H         4.69590649735106    5.11759475186431    5.41999329844993
C         2.82843144508868    8.73967573114391    3.71263133372702
C         2.47879286091986    9.90114017213925    4.39338628515418
H         2.33151753998870    9.87545402391180    5.46449975469046
C         2.29593915023111   11.07932443942422    3.69158638152391
H         2.02903192808794   11.98371783961893    4.21872087687504
C         2.44379922489937   11.09969319807770    2.31353050489921
H         2.29805288908189   12.02229706215084    1.77144185052856
C         2.75991478729192    9.93696362034677    1.62819526073418
H         2.85363940430231    9.95207319370159    0.55250606334613
C         2.94861664435487    8.75714697709729    2.32487577661812
H         3.18681914931691    7.82315104132994    1.80510316425508
C         1.66257903042026    7.10851021577407    5.67430343700603
C         0.42260195728295    6.80762426230376    5.11576719670586
H         0.36714488362711    6.57288380440131    4.05880460872019
C        -0.70685884538829    6.78422633812465    5.91052320319830
H        -1.66867525045619    6.54850378833891    5.47915706914588
C        -0.60305458779617    7.05634265757792    7.26644431848771
H        -1.48446734664359    7.03389440643722    7.89031529458921
C         0.63022822778418    7.34710206731776    7.82522470713493
H         0.70942482653734    7.55107643607622    8.88330731455959
C         1.76620367743763    7.37399661238521    7.03404705602539
H         2.73018055358701    7.59208885364092    7.47315511190780

