105
CSD_code = NEKLEX | q = 0 | S = 0 | Stoichiometry = C40H59FeN3P2 | MND = 6
Fe        0.45057076559711    4.98921804363308    7.57265096209247
P         0.35109965898942    7.13324745643028    7.97744678019594
N         1.22934568480463    4.98922379386068    9.36441161337388
N         2.16482788510191    4.98926507903898    6.80581059839505
N        -0.11964757530302    4.98924579028876    5.80651779677417
C         3.34981103931301    4.98923525296283    7.43029719606968
H         3.31270259035890    4.98921095354664    8.50720646142035
C         0.86944438626851    4.98924145703198    4.86667884929089
C         2.18695527857153    4.98926555088875    5.44553877203565
C         1.55911135941362    6.08523742381461   10.09299975799410
C        -1.22088677842453    7.87174258274377    8.64600591659194
H        -1.05287049309296    8.94448798530566    8.81321690280876
C         1.04694660977535    8.38970912107574    6.77319314267934
H         2.06869198281380    8.00145124490231    6.62175154827645
C        -1.37969879470325    4.98919771514432    5.35234905658449
H        -2.14034072364752    4.98919087221508    6.11358466374111
C         1.49036268005632    7.40617307502127    9.40190452051833
H         2.48042160910891    7.66421063467813    8.99925613407733
H         1.16051642951822    8.22316466707386   10.05028065000483
C        -2.88593563703482    7.70409024766504   10.53366888083042
H        -3.10791148235372    7.18663809461932   11.46930960139931
H        -2.79965610578396    8.77168439183623   10.75513086670428
C         0.59486860880789    4.98916917899087    3.49841904900563
H         1.40739454323549    4.98918932659963    2.78963702431327
C        -1.56320896389524    7.19161165780350    9.97172235562764
H        -1.62527071023424    6.11731107027396    9.79053783940657
H        -0.77398949504208    7.34968447460140   10.70695496057533
C        -2.36891702538875    7.65942790314214    7.66333515749006
H        -2.44823962433807    6.58605452915159    7.48655864203347
H        -2.15459872507949    8.14062686297675    6.70745070961511
C         2.08005245365268    5.69309839893456   11.30817851269078
H         2.42498429920985    6.33545142064983   12.09763548794843
C        -4.01782459755969    7.48749680952164    9.53609590687826
H        -4.13939943974179    6.41713435319218    9.35635306454298
H        -4.95729682596230    7.87047064720355    9.94139771073599
C        -3.68846719235555    8.18415616396412    8.22112054029716
H        -3.61258140569414    9.26186898902261    8.39018349796394
H        -4.48796805027062    8.01620993679386    7.49541122197164
C         1.98042221141815   10.66109667994050    6.32171262510988
H         2.05237993645162   11.68789726355199    6.68767117810840
H         2.99343723401921   10.25457700344174    6.26754358471128
C         0.35954499451495    8.40579514749255    5.41011935732741
H        -0.62754064716907    8.86419660634393    5.49653826509912
H         0.22556734969212    7.38959197716636    5.03976166317573
C        -0.71102998187535    4.98907779905864    3.06003202174086
H        -0.94417215929094    4.98901798406334    2.00694412926320
C        -1.72137745377920    4.98910421928644    4.02179314449951
H        -2.76035724923596    4.98903298694511    3.73338624320197
C         1.15148009401108    9.82207310471364    7.29409289709443
H         1.61551912398874    9.84444464373045    8.28117937602913
H         0.15350711404120   10.25762341859740    7.37623674597822
C         1.35639280628062   10.65125933091851    4.92880680536708
H         1.98008042947883   11.22311703556435    4.23834609720003
H         0.37626843968600   11.13267138178917    4.96939116322780
C         4.56019239006687    4.98919470555688    6.77840220649868
H         5.47565922355742    4.98914686509479    7.34882756485920
C         1.19124819986139    9.22085568399138    4.42232113452948
H         2.17404825157157    8.75649509445224    4.30669064278628
H         0.70689768949351    9.22555823001331    3.44313586138116
C         3.37809182718631    4.98925459166320    4.71923445408246
H         3.34914069387506    4.98929278309208    3.64116950415389
C         4.58442912919301    4.98920677111120    5.38391448817034
H         5.51823659109991    4.98920148590314    4.84328851506993
H        -0.89509926078775    4.98932870929200    8.08331707587653
P         0.35115487079571    2.84518960964502    7.97744589961842
C         1.55915875497737    3.89321367611051   10.09298335694366
C        -1.22080696727726    2.10671448886874    8.64606528273502
H        -1.05277872683288    1.03397125841472    8.81328115372557
C         1.04694796708854    1.58873552195883    6.77316565304550
H         2.06872250674673    1.97693151218243    6.62176139721153
C         1.49044233354917    2.57228010182833    9.40188083855976
H         2.48050075536115    2.31425444039345    8.99922810450865
H         1.16060689504760    1.75528100518977   10.05025241937252
C        -2.88580471074279    2.27438073785852   10.53376739343883
H        -3.10775774811087    2.79182781409464   11.46941634055255
H        -2.79951203634656    1.20678645334620   10.75522099298941
C        -1.56309410638886    2.78685759396590    9.97178453560422
H        -1.62515664879241    3.86115970108458    9.79060916194953
H        -0.77385546244557    2.62877800322782   10.70699459639738
C        -2.36885855217833    2.31903360505834    7.66342029895690
H        -2.44819024724376    3.39240579967133    7.48663022863804
H        -2.15455661821202    1.83782245616313    6.70753791361746
C         2.08008380462923    4.28535944873369   11.30816445939271
H         2.42503723304061    3.64300788138934   12.09761198852022
C        -4.01771891047641    2.49096786099910    9.53622187298145
H        -4.13928942071905    3.56132967323438    9.35647498038879
H        -4.95718360459659    2.10800164872106    9.94154921999805
C        -3.68839477787158    1.79430898896419    8.22123868108378
H        -3.61250550537265    0.71659682588982    8.39030411988297
H        -4.48791485156281    1.96225257113671    7.49554915885830
C         1.98028454263649   -0.68269212080752    6.32166965691837
H         2.05216758836668   -1.70950649602613    6.68760356809754
H         2.99332474252290   -0.27623191111538    6.26754192399491
C         0.35956808499590    1.57274653107145    5.41008041798885
H        -0.62754998060321    1.11440807425178    5.49646209926305
H         0.22567048792199    2.58896874080689    5.03974694146996
C         1.15137527902165    0.15636049047516    7.29404937434371
H         1.61538041889334    0.13393706952057    8.28115201537215
H         0.15337034795984   -0.27912438520891    7.37614667966313
C         1.35629392919512   -0.67277342921274    4.92874633770429
H         1.97996086715620   -1.24465699316253    4.23828822211670
H         0.37613450009644   -1.15411744192456    4.96929410122057
C         1.19125519035054    0.75765539845595    4.42229551634702
H         2.17408778337138    1.22195813781280    4.30670809151098
H         0.70693479600015    0.75301499755586    3.44309590752064

