75
CSD_code = NEKMUO | q = 0 | S = 0 | Stoichiometry = C38H29IN4O2Pd | MND = 4
Pd        4.15563491645368    4.99824645959873    5.67894989412378
I         4.44588760964209    2.58036850078124    4.82009684847852
O         3.49042441639224   10.14920946603457    3.09514380177471
O         6.55634715166175    6.55156818220732   11.39120382209610
N         3.45064141061476    6.01564629087246    3.98824546875848
N         4.75392937838496    4.75832964466563    7.68230158918381
N         2.85936166409485    7.95199978625298    3.04104758783607
N         5.74447796325925    5.73971081166436    9.43175234047682
C         3.43756347488972    7.33854862225450    4.13146155738762
C         2.90413449620838    5.72711945839935    2.75935212755329
C         2.70464218054268    4.51612461112012    2.10316345646275
H         2.98408798123125    3.58299810772462    2.56252102360320
C         2.15082590189286    4.55584590521837    0.84112581672891
H         1.98738060476022    3.63128297753534    0.30989603325772
C         1.81247346445281    5.76138776892277    0.22852280767455
H         1.40064317260541    5.75209603747245   -0.76891258119321
C         1.99671481942690    6.97277592431913    0.86714717709610
H         1.74166430711253    7.90139021569501    0.38154704848649
C         2.52252232061067    6.93899314334742    2.14825237983545
C         2.65525696458099    9.32727411909883    2.80734354357603
C         1.34544428643749    9.66512603268906    2.21640186471533
C         0.19732610607006    8.93329142199107    2.51939365303590
H         0.25409929942148    8.07551182819793    3.17330711198748
C        -1.02109910691601    9.32127630058030    1.99637460266906
H        -1.90949283254617    8.75641291097449    2.23450704157852
C        -1.10435441640837   10.43140112579567    1.16976529929928
H        -2.05829705504702   10.72435397151572    0.75789076587310
C         0.03157946348738   11.17058112048690    0.87882427807891
H        -0.03588474727857   12.03980934581641    0.24246548177025
C         1.25177282587366   10.79754465815165    1.40868789475435
H         2.14750455449290   11.36279945956041    1.19909838613369
C         4.24870036975941    6.84848521706871    6.26406463976844
C         3.89556744682784    7.88479507174822    5.39143044420946
C         4.01142521812625    9.20235640481647    5.82755038388120
H         3.79595528844578   10.01042981737508    5.14998243470413
C         4.41585792337620    9.49319484888741    7.13084985998866
C         4.77037996122470    8.45727984222895    7.98723644576550
H         5.06486079403420    8.66291133688950    9.00223689473026
C         4.74286831661380    7.13690180831074    7.53706458179192
C         4.50591960235349   10.95398459928161    7.54862309037741
C         3.18072364496290   11.66724780249840    7.24550819877124
H         3.22518357531355   12.69629448821960    7.59515408521250
H         2.35783185730540   11.16716211302728    7.75247381028765
H         2.96831147029065   11.68578054199994    6.18046757033567
C         5.64335800237500   11.60388010100997    6.74782307704113
H         6.58434491687114   11.09755981297436    6.95667795388315
H         5.74411956176500   12.65153321827519    7.02249399317604
H         5.45256518904091   11.54543835856469    5.67963148469936
C         4.80395896317071   11.12414488491349    9.04075519301413
H         5.77934615668424   10.71686558143758    9.29703101164835
H         4.04182593100480   10.64212918022364    9.64937062515380
H         4.81045169269343   12.18362738059607    9.28802721311226
C         5.11683274217780    5.91754968675396    8.22119811400306
C         5.09053909889770    3.76886614910204    8.57940475652847
C         4.90103978593304    2.39141022903592    8.54733381802325
H         4.42819390393618    1.91468578229612    7.70512924718437
C         5.34375589347958    1.66175930168962    9.63149270161701
H         5.20892042411639    0.59118972100583    9.63246245231447
C         5.95913124559791    2.26938248098405   10.72518051819691
H         6.28997709893336    1.65969310175466   11.55190798952883
C         6.14560173482871    3.63797654858933   10.78060086160770
H         6.60528802012549    4.11927639185481   11.62867587343355
C         5.69443242348948    4.37365627336700    9.70062161987521
C         6.51390549500949    6.64488850356767   10.18986031620285
C         7.30031281481312    7.62983014541351    9.41526806181644
C         7.66837063553399    8.81364712611193   10.05541837986045
H         7.34630198904044    8.97339690450299   11.07399438037558
C         8.41404685565777    9.76387216447149    9.38538255118830
H         8.68402372328055   10.68468908296864    9.88036528572559
C         8.81281669770368    9.53346328137978    8.07779044821579
H         9.39104397787920   10.27786039341116    7.55090933191422
C         8.48427642361472    8.34210687399398    7.45033245297126
H         8.81434452227110    8.15398444001294    6.44010516529251
C         7.73512188135799    7.38830758044969    8.11287548391531
H         7.50995415362841    6.45408121803435    7.61875907557359

