32
CSD_code = NEKQIE | q = 0 | S = 0 | Stoichiometry = C16H12MoO3 | MND = 9
Mo       -0.38586038127373    1.21157589826460    2.51105775071547
O        -1.66433375637008   -1.35536565797107    1.34615783092105
O        -1.95299635968397    2.13266336635122    0.02308119685036
O        -2.75525177038069    0.58565976781868    4.38056085189776
C        -1.16115432946851   -0.41908713778317    1.77951153472086
C        -1.40345868521497    1.78150179596092    0.96510362969353
C        -1.89790439067209    0.82441874522214    3.65941384702645
C        -0.95037053814526    3.34686243797247    3.16151768849890
C         0.43966934866430    3.95939985050095    3.30435429321077
C         1.18871511676934    2.66847186793684    3.14578482302905
C         1.18097176816463    1.61394173650580    4.10468836257049
C         1.60684252310620    0.44158098374009    3.45666362740468
C         1.86897629951621    0.76041761060173    2.09270182839760
C         1.62184877124439    2.13343343334874    1.90701507154124
C         0.70838281393837    4.69924119818079    4.59179279952905
C         1.94020347432128    4.58283091397706    5.22387169281002
C         2.19817463378650    5.27343127451686    6.39461138368259
C         1.22811356334409    6.09312153002171    6.94521159262735
C         0.00295673798762    6.22505014713072    6.31406038078880
C        -0.25512681205660    5.53420599647746    5.14360049767143
H        -1.57371181729471    3.88060097184774    2.44703748404439
H        -1.45423123233462    3.31258026806670    4.12700858245244
H         0.65990020370942    4.62919917438246    2.46064451767119
H         1.03366119154832    1.73961350711366    5.17142913596400
H         1.85982822626317   -0.49610167272184    3.93604739662189
H         2.35200384795159    0.10074803591056    1.38203429727261
H         1.86018141187735    2.71241944302945    1.02170273132047
H         2.70430138211187    3.94996976838626    4.79171343408440
H         3.15935617985611    5.17182888472386    6.87709226157342
H         1.42782534214220    6.63066798071938    7.86022094970676
H        -0.75501085881268    6.86984780842759    6.73394676535340
H        -1.20960190459527    5.64767007134057    4.65056176034678

