73
CSD_code = NEKSAX | q = 0 | S = 0 | Stoichiometry = C32H36N2O2Zn | MND = 4
Zn        3.51433251298364    2.89170540657903   -2.98848679253402
N         2.50547023372398    3.71517713196481   -4.36744343190313
C         2.89530425738911    3.39652384995092   -5.65973019240613
C         3.01389551645350    4.36385414174183   -6.66630298977244
H         2.76457254264185    5.39221863812815   -6.44600866332406
C         3.46420598462831    4.01932866600218   -7.92458922910374
H         3.55090854812810    4.78422488377760   -8.68370892633950
C         3.81689468341340    2.71176160286452   -8.21707954818336
H         4.16960193107527    2.44850768916168   -9.20297179595053
C         3.71747899974709    1.74808532758549   -7.22648989139769
H         3.99243132547992    0.72456981799051   -7.43800373183844
C         3.26316614794265    2.08274666569073   -5.96684383841520
H         3.17965171902415    1.32198400059605   -5.20028730286324
C         1.60031607544920    4.73157399841752   -4.14968750975692
C         0.56570317544466    5.02023994978639   -5.05253449098732
H         0.48275809503180    4.44282150360509   -5.96147366001576
C        -0.35155316366755    6.01277920226403   -4.77910677631883
H        -1.14092441209541    6.21385973189472   -5.48968548958511
C        -0.27978698551934    6.74427801899155   -3.60343957336743
H        -1.00047622520128    7.52110506814225   -3.39668297356097
C         0.72406666300102    6.45674049111600   -2.69376943018000
H         0.78978994470331    7.01341135802482   -1.76855086714712
C         1.64920092113214    5.46804092607468   -2.96138951624153
H         2.43218801894323    5.24678520292479   -2.24834203236192
N         4.59079138244623    1.34964535523434   -2.71387075435282
C         5.96266747008929    1.55739595283757   -2.74179794892696
C         6.51272976443357    2.23444221469265   -3.83487576378368
H         5.85671284145310    2.50880298039794   -4.65244999491431
C         7.85962104020141    2.53013447704675   -3.88049099464371
H         8.26619108922697    3.04554725708054   -4.73998547923851
C         8.69467576157735    2.15928782422822   -2.83719167102674
H         9.74945028931638    2.38810804007440   -2.87384431145336
C         8.16235179296197    1.49226511808872   -1.74608481539806
H         8.80312449187841    1.20766724911887   -0.92324840320074
C         6.81429930678022    1.19372301912298   -1.69180635417216
H         6.40803288388947    0.69306552659479   -0.82336576561566
C         4.04803165786383    0.14569829094160   -2.35443731906752
C         4.79231514666951   -1.03300033114070   -2.18390165826762
H         5.85892743543591   -1.02084527329834   -2.34981483617170
C         4.17145458350356   -2.21555745098156   -1.83935008263782
H         4.77141311221121   -3.10563269609561   -1.71078735430546
C         2.79824789948452   -2.28065612588326   -1.66672948091057
H         2.32200911724490   -3.20926308463143   -1.39148497954220
C         2.04288551509362   -1.13888425865647   -1.88364980774464
H         0.96589434595265   -1.17836681457637   -1.79121507199900
C         2.65560926464777    0.04696651722385   -2.22616556027602
H         2.05883481850424    0.93356089066077   -2.43002786055950
O         2.77732911618566    3.12720596560648   -0.86403828789903
C         3.47401522776901    2.57947166844427    0.24288118938589
H         3.67653677292581    3.37918941177817    0.97007577986232
H         4.41572783235740    2.17192852245866   -0.11803227605109
C         2.54117664745804    1.52207012081308    0.84577370659309
H         2.77434897866774    0.53933163283541    0.44007812279631
H         2.63500035522385    1.48563526373692    1.92865192907721
C         1.14280736733981    1.97501221887210    0.39200694491121
H         0.66989218852704    1.20438872751382   -0.21319582985351
H         0.48907436435377    2.20474781167040    1.23069560062854
C         1.42263817463811    3.22906559420239   -0.44797086107111
H         1.30426539487714    4.13589570854843    0.16169077583777
H         0.79773120143746    3.31613236769025   -1.33601784832584
O         4.94888709244414    4.55775859995682   -2.63957742846758
C         5.84454719297454    4.76704491204982   -1.55151214452958
H         6.19071984092827    3.79560404731883   -1.19505639551722
H         5.30798028651184    5.28107328539438   -0.74182981442871
C         6.96950565079735    5.63815186912486   -2.09729581042431
H         7.46745875695721    6.20747536313910   -1.31644037889455
H         7.70099821847024    5.01599546936428   -2.61287020523344
C         6.21385288560320    6.51329863015704   -3.09358621474580
H         5.70977092891146    7.32946671217315   -2.57454367199329
H         6.85349690640771    6.92973782829426   -3.86727736514380
C         5.19418493450172    5.53018618172438   -3.66278552586008
H         5.58938176520894    5.01315976944081   -4.54400086033799
H         4.24620439777903    6.00404436632708   -3.92793820853947

