44
CSD_code = NEKWEF | q = 0 | S = 0 | Stoichiometry = C18H18Cl2N4SZn | MND = 4
Cl        1.09767414524987    1.28283628961084    3.93255112521329
Cl        2.21783252838708    4.13994099446804    1.43575861191325
Zn        2.56124180408691    2.64018017452930    3.05898072839670
N         3.31626748010373    3.97383101795308    4.48284274023917
C         2.51611529853503    5.02551108334932    4.86462325603761
C         1.14032773462272    5.18948470606418    4.78738803779762
H         0.52227297868411    4.40636785017531    4.37556170667141
C         0.59361995139172    6.37280401681252    5.24469023742857
C        -0.88769136226904    6.57687852149154    5.16665031101793
H        -1.12371775128608    7.44781488613757    4.55664845646372
H        -1.30768842530693    6.74108722312767    6.15842853879671
H        -1.36697572542829    5.70729757985960    4.72680501498073
C         0.79499170757226    8.66378542005267    6.26899051906207
H         0.07016363532884    8.46183756156542    7.05635682713227
H         0.26944303154909    9.16590820156366    5.45808123063238
H         1.55257249881957    9.33770446845561    6.65985264176540
C         1.41470270377135    7.39005915705312    5.78323171601055
C         2.78618869029241    7.22605872766428    5.86852449115563
H         3.41368664552180    8.00209657477009    6.28010406573489
C         3.32743879226699    6.03859416811770    5.40616890885967
N         4.61140872613380    5.54923608506868    5.33986463967728
H         5.45307876990926    6.02793749830801    5.61617732545012
C         4.54715080909985    4.31525986812658    4.78120332253146
C         5.73490664745970    3.47490927499916    4.53910872811824
H         5.43832788898049    2.43966016965716    4.37803481864051
H         6.44683581906876    3.53990516654807    5.36162132170379
S         6.67917003234432    4.04344033259562    3.07048353941832
C         5.49637091333692    3.67291687544873    1.71941444587363
H         4.57236642125420    4.23289036319549    1.87428000438604
H         5.99348707073661    4.02145711826220    0.81533290556292
C         5.22509710246454    2.22635177653890    1.66692852521666
N         6.01761109285495    1.34404587039464    1.01083579101250
H         6.82661466811446    1.57803644426842    0.45860697645220
C         5.50379710210216    0.08590379977893    1.22017174733238
C         5.89188766661885   -1.17432410089551    0.79368937507247
H         6.75645955859665   -1.31529394643157    0.16367970164121
C         5.11677934299039   -2.23666487422060    1.21348358622734
H         5.38149798961132   -3.23625067867369    0.90389432152538
C         3.99595754824653   -2.05261624404029    2.02780745472404
H         3.42185206608739   -2.91646920287036    2.32528720480647
C         3.60366793725691   -0.80237926229192    2.45753833690061
H         2.73638810255861   -0.65109339426883    3.08007260471059
C         4.37381770178237    0.27771376535784    2.04171995444585
N         4.24520266049534    1.62384867231188    2.30162420325273

