20
CSD_code = NEKYUZ | q = 0 | S = 0 | Stoichiometry = C7H8Cl2N2Pd | MND = 4
Pd        7.40546801214496    1.62822619490495   -0.35267180007778
N         6.69766888676932    1.33223717574137    1.52518717880528
N         9.03242203232825    2.13936407970306    0.65911815179314
Cl        5.52620204347108    1.03366644872489   -1.33941852641042
Cl        8.30911615584525    2.00545264515885   -2.33893768633909
C         7.62943836909089    1.62277389215401    2.46442345975243
C         7.35193133834766    1.49757643534987    3.82838955599745
H         8.11581151433604    1.73789625542292    4.55123307939745
C         6.10058686080227    1.06774166326280    4.22184925396443
H         5.86038585629731    0.96329960339897    5.26858425497125
C         5.15503203301086    0.77172492627857    3.24414130299365
H         4.16804715279659    0.43297898548165    3.51345452394067
C         5.49373683345515    0.91725421265126    1.91029564695220
H         4.79189507531652    0.69971947086968    1.11260088665836
C         8.89494149493243    2.05903309728645    1.93822847188568
H         9.70690126603923    2.30981924242308    2.62040023147346
C        10.28030509180524    2.56608898208688    0.09515872498695
H        11.01861977147926    2.80033804443904    0.87002373253253
H        10.10266257049660    3.44097346984238   -0.53508224429420
H        10.65932764123577    1.77853517481905   -0.56117819898312

