29
CSD_code = NEKYAD | q = 0 | S = 0 | Stoichiometry = C12H8Cl2N2O4Pt | MND = 4
Pt        5.35085756200539   -2.61265161753315    3.97260023443711
Cl        4.51815994294103   -0.69987755759021    3.17840189531981
Cl        6.39314148463408   -2.89696694645743    2.01916486103006
N         5.91526961146990   -4.37094979009096    4.75498662199809
C         6.49758785572450   -5.35333322768577    4.06754808022758
C         6.57313821125545   -6.64462326979743    4.54880650686148
C         5.92542402514630   -6.94758534398018    5.73763430119888
C         5.31394282787482   -5.93010617386759    6.46136939747872
C         5.40674102609766   -4.61120719749000    5.98406671470887
C         4.46823733651290   -6.29485801523229    7.62854565185147
O         4.76273513612632   -7.49853246540544    8.11767407577100
O         3.56689458852184   -5.62365948200834    8.06635174323934
H         6.89972284617263   -5.07203995867292    3.10145035462312
H         7.08311922156081   -7.40636902368456    3.98263628340557
H         5.87268028288748   -7.96108591517463    6.10127717957401
H         4.16662931561876   -7.71759701252427    8.85193056398102
N         4.58535471463826   -2.41132547453792    5.81517662589080
C         4.02466480538684   -1.29647045024326    6.28376374423797
C         3.81033424232491   -1.09000634444988    7.63136214284159
C         4.29223286173060   -2.03008526632619    8.53066280281602
C         4.87864471535475   -3.19611662523670    8.05180257672063
C         4.93011676731415   -3.40602927968531    6.66289448327532
C         5.55293816874957   -4.10280860211590    9.01829253915518
O         5.11572709482269   -3.93682667411390   10.26565763044804
O         6.44354300922052   -4.86809702361102    8.74315919895918
H         3.75658378286423   -0.55920743675344    5.53626448513850
H         3.32274606943657   -0.19180617789047    7.97249304088688
H         4.23586771060595   -1.86427495961334    9.59439921560341
H         5.60336478300203   -4.51670268822831   10.87262704832098

