23
CSD_code = NEKZIO | q = 0 | S = 0 | Stoichiometry = C8H10Cl2N2Pt | MND = 4
C         2.77349232434387    6.45309280800804    0.16062424411602
C         3.65245963290325    7.13684242947149   -0.68305607122493
H         4.05605349645206    8.08713484955632   -0.37092138383466
C         3.98301633553993    6.58022105546748   -1.90156756829457
H         4.65741098920700    7.08848951832284   -2.57295533507512
C         3.42918267230561    5.35071756352111   -2.24921693920569
H         3.66373529033627    4.88487907167273   -3.19218733577548
C         2.56571344062778    4.72511739092662   -1.36957599384140
H         2.10853683455962    3.77077159142901   -1.59752030751784
C         2.37172833662287    6.91037675108231    1.45852207511180
H         2.77693440376325    7.83324885271729    1.86512586788538
C         1.20451752695350    6.53419510440319    3.47907892832244
H         0.13630145333945    6.35188206335792    3.62012532202952
H         1.43487774036962    7.59072434649193    3.66430623170401
C         1.98089865541592    5.64391880291616    4.45080058349780
H         1.73820371316170    4.60114479730574    4.25663019878204
H         1.69891568268327    5.88510046917996    5.47119404492083
H         3.05273207729767    5.79044982989572    4.33251193836199
Cl        0.36642652877820    2.77148224096436   -0.02388619193918
Cl       -0.56933923909264    3.95518910828590    2.70747454708574
N         2.24079430814079    5.25762447737679   -0.19476157334053
N         1.54340194182110    6.17637168658060    2.12762100652327
Pt        0.93850585447079    4.56362519106590    1.17073371170875

