23
CSD_code = NEKZEK | q = 0 | S = 0 | Stoichiometry = C8H10Cl2N2Pd | MND = 4
Pd       -0.02579423341781    6.03538936765703    3.69038687130987
N         1.43767949123548    5.05496831596246    2.68311108326579
N         0.29317206658695    4.56939706470196    4.97423060138625
Cl       -0.21510958551492    7.63849251190436    2.18292042497843
Cl       -1.76984465609021    6.88554583185260    4.76306898262039
C         1.76777052210852    3.88922710661179    3.29043000977435
C         2.67409335368792    2.99721691659550    2.71020700671997
H         2.91326747552617    2.07639737522815    3.21890339516178
C         3.24103267054385    3.31388266930708    1.49245009108620
H         3.94176804369220    2.64158127104887    1.02194917852374
C         2.89169311291022    4.51532919674573    0.88200134833031
H         3.31414420196729    4.79641270203600   -0.06876928751877
C         1.98836099628706    5.35479357672506    1.51009144798833
H         1.68484200485482    6.29969348646069    1.07266139805889
C         1.14286413741900    3.68827242595724    4.56897799952830
H         1.42291222808791    2.83330659162999    5.18322872483734
C        -0.22723676083694    4.52030480578097    6.31248873190787
H        -0.04148367740089    3.53965820927638    6.77092714791879
H        -1.30232392767461    4.72258688636666    6.26576539827345
C         0.44185339236511    5.63186505123918    7.12688898642948
H         1.50734196854075    5.43670552841374    7.23790428917977
H        -0.01347872857346    5.69584048332431    8.11035268172052
H         0.30197590369503    6.58623262517397    6.61042348851818

