69
CSD_code = NELDAM | q = 0 | S = 0 | Stoichiometry = C24H37IN3O3Rh | MND = 6
I        -0.19551251497442   10.69231678656831    7.40190556833578
Rh       -1.48654273971506    8.27455382540422    7.23321680838179
O         0.42605563386043    6.62177896258342    3.89413555954401
O        -2.31496115490823    9.25544810613493   11.20956325393161
O        -3.79896991088484    9.62968661156012    5.89485813259700
N        -0.71035441523816    7.78421064291342    5.39752962100201
N         0.02468757909413    7.28694215223764    8.14899460729266
N        -2.30404588177610    8.71589731025309    9.06234490384801
C        -1.37126312434808    8.09245887363465    4.12174433274338
H        -2.44324748124286    7.87933306844343    4.19921071441028
C        -0.68961372043968    7.10821697974498    3.15852311478661
H        -1.33050022160263    6.25792827604850    2.90183713431768
H        -0.32708208086070    7.57125023544068    2.24097352586288
C         0.29535404519369    7.02368269924897    5.15556073307889
C         1.38024222349128    6.62236721285605    6.10027428362653
C         0.91598768007864    6.45628838389554    7.52430422369084
C         1.49587929213630    5.60883402407848    8.44317854539446
H         2.23351944206599    4.85307193108877    8.25979668360349
C         0.94668906358399    5.93019529312366    9.68734676738328
H         1.19403133149005    5.46612549733554   10.62204845196810
C         0.05244916146580    6.95834636806051    9.47607535754268
C        -0.56830273467587    7.75408844952355   10.59246906050602
C        -1.75337171302495    8.57615509977626   10.21171365948846
C        -3.32482000408815   10.08902762025262   10.65485701821343
H        -2.96251504107335   11.12240531492352   10.66707662173509
H        -4.21976099195343   10.01335291180401   11.27168734792975
C        -3.50036994355311    9.55277847427446    9.22684145028574
H        -3.48282212820013   10.37538200956003    8.50465168434509
C        -4.78297642965697    8.72180753327739    9.01159646981890
H        -4.67769628253716    8.21978705137952    8.04374839025239
C        -4.96372156830189    7.63791262730426   10.07251842308963
H        -4.06445022669141    7.03187930665836   10.16236893978089
H        -5.78505204937347    6.98386114217770    9.78977666128279
H        -5.19476940480825    8.06174195183637   11.04701380286475
C        -5.99839095382748    9.64266620761098    8.94728327250808
H        -6.12521705845567   10.18868455168107    9.87945835792507
H        -6.89796751391122    9.05928767238574    8.76827495868294
H        -5.89136406652630   10.36344636513535    8.14001116173674
C        -1.18667556473560    9.57644989339340    3.73291952824941
H        -1.54358548159154   10.17909829021866    4.57314806275890
C        -2.04753838681059    9.90478708026220    2.51624692845996
H        -1.73700301356259    9.33068054461660    1.64563255077153
H        -1.95670125124424   10.96103917315389    2.27786403230683
H        -3.09525406193142    9.68846963110381    2.71451292083475
C         0.27388729886276    9.95171069499269    3.50051812203877
H         0.87447826408838    9.71475855148476    4.37421168469677
H         0.34635567757850   11.02309376442418    3.33368941985534
H         0.69483069633240    9.44523718750500    2.63468302533144
C         2.04876929489014    5.34253070193473    5.58604811322848
H         1.36873634726324    4.49736766390518    5.66522089775494
H         2.93684946106596    5.13208638218086    6.17294693787647
H         2.34349383666067    5.46130508362239    4.54672545511036
C         2.40712213438505    7.78016157403348    6.05895872372619
H         2.77544623405692    7.93561026292702    5.04633714538596
H         3.24337276288527    7.52787679337316    6.70549149456031
H         1.96099636779995    8.70031968412553    6.42701139685081
C        -1.02192952477682    6.82511503797732   11.73317290568886
H        -1.52096065537461    7.39776251165211   12.51108819664840
H        -0.15946213578645    6.33015043522388   12.16724132274416
H        -1.70239080614723    6.06411668462263   11.35492196112363
C         0.49217515245844    8.74539559262010   11.12226859535092
H         0.77933096892440    9.44158234781039   10.33722148912786
H         1.37503043449010    8.19154035043420   11.42875341147706
H         0.10449544774927    9.30537200483746   11.97019831073705
C        -2.43765783498140    6.39975873797440    7.19684451264791
H        -2.74614764409083    6.11586753788912    8.20375588771815
H        -1.74181081162841    5.63788025922384    6.84125624100239
H        -3.32006011992884    6.37371704362242    6.55304838833059
C        -2.90942718270797    9.11416096863863    6.40199273381938

