63
CSD_code = NELDIU | q = 0 | S = 0 | Stoichiometry = C22H32Cl3N3NiO2 | MND = 4
Ni        0.53085775586373    9.64908018326487    0.68305716426632
Cl        0.26662674786424   11.67798370458003    0.41879682759850
Cl        2.72204142543599    4.60091448240702    2.02981209637787
Cl       -0.24630013921017    4.03694156463813    0.68751778972704
N         0.77321125335460    7.79846500640083    0.92443008503155
N        -0.29388904478811    9.25629662130333   -0.97281708601265
N         1.37197185771600    9.90692600902023    2.35687035384884
O         2.82595392629360    9.47046493803860    3.96601889530985
O        -1.54558121563503    8.08069537366020   -2.36774273069709
C         1.86705695445773    7.21901880447974    1.47960912054838
C         1.67975581651499    5.84998032390100    1.47654215087259
C        -0.12150055316724    9.94991910205925   -2.24439600596684
H        -0.46866071534630   10.98263429272045   -2.12813915123087
C         0.41894081753451    5.60834372721277    0.88958265832044
C        -1.04093654898862    9.14195217638904   -3.18236563499305
H        -1.88907703699672    9.72541697010953   -3.54896322718405
H        -0.51605731482545    8.70004877571343   -4.03121936359585
C        -0.11563137819363    6.83971693687490    0.56211694246098
C         0.98426403853602   10.82911409602324    3.41850615248326
H         1.06728032160215   11.85323160756381    3.03784705333170
C         1.97203329324918    8.59712786119179   -2.78345810699326
H         1.78709995523171    7.99843656846871   -1.89292351908869
H         3.04729762269014    8.67683795907492   -2.92240660074619
H         1.56196617330157    8.07466385097445   -3.64527203566133
C         2.36229216242469    9.19878590124132    2.75433763284679
C         3.00126672262009    8.10599932927741    1.94080835060487
C         2.04015937455268   10.53726062693966    4.50378246519710
H         2.70006536073336   11.38778082815042    4.69151805583090
H         1.61060164544797   10.20123080248639    5.44929366337458
C        -2.23479542958106    6.10943450202905   -0.63777920897284
H        -1.64657122027670    5.54912639769026   -1.35877616554398
H        -3.12218924836747    6.49155762940361   -1.13695126218657
H        -2.53979932372057    5.43977034250780    0.16021546615458
C        -1.42492227528740    7.26566775048605   -0.06248366130490
C        -0.93154865315282   11.64169954557774    4.83529074129419
H        -0.35864597398280   11.56683913211516    5.75722999293580
H        -1.98238197900300   11.50059206152453    5.07442397550180
H        -0.80376649668935   12.64173671468007    4.42886420546121
C         1.36802346692596    9.99197190553185   -2.63376246057319
H         1.87286283924001   10.50010092311268   -1.80063399027926
C         4.05584765175659    7.37448807717574    2.76345425149808
H         3.60173463704164    6.87755776860439    3.61590633629720
H         4.79645748812063    8.08192801044551    3.12905989997855
H         4.55233420623660    6.63016604209667    2.14888706372784
C         3.64662127442645    8.76943942728697    0.70791562554911
H         4.03775172179588    8.00243490125081    0.04490787229064
H         4.45646475207691    9.43043887116960    1.00918674450500
H         2.89105212211615    9.35606650994509    0.16791804275292
C        -0.48243964934997   10.59222282875458    3.82416505416400
H        -1.06466694817156   10.72701933699709    2.90214346407253
C         1.56459351234749   10.82423624830476   -3.89644812069470
H         1.05610581395932   10.37261240652877   -4.74570355989813
H         2.62313316136377   10.89650171734278   -4.13213581867416
H         1.17542730144769   11.82930924788612   -3.75495907700355
C        -0.72405601796935    9.17622744372594    4.34319738540527
H        -0.35278494745805    8.43670777532688    3.63543701124890
H        -1.79033803673886    9.01264098180629    4.47799721743977
H        -0.23782826892529    9.01438214721937    5.30297694528044
C        -1.06180449073589    8.24583128465742   -1.14482753501824
C        -2.25291390912262    8.02964974235963    0.98980815021437
H        -2.45381670931773    7.37942614377253    1.83697770675639
H        -3.19577063491845    8.36604093470573    0.56391996170113
H        -1.68797901435325    8.90490682382308    1.33823375005423

