65
CSD_code = NELDIT | q = 0 | S = 0 | Stoichiometry = C32H25FN3NiOPS | MND = 4
Ni        6.18198984435800    8.04522015406873    8.17101684721526
S         4.61925299973870    9.54006388855640    8.39525496394204
P         7.23647433997000    8.70392323569543    9.95855780836145
F        -1.16650880578747    9.49149826208393    2.74850051152506
O         7.49738901987439    6.74663126113524    8.01187028615956
N         2.62907719215543    9.79910702956731    6.71196995339407
N         4.15734319831617    8.10680809127778    6.19596627017144
N         5.29912441112801    7.48240411298392    6.59457010774852
C         1.69664832223999    9.68795891120090    5.69410739072397
C         0.61005417922610   10.56565807829713    5.70402858565988
C        -0.35320746805010   10.50375429823017    4.71749937185671
C        -0.22464750216562    9.55686922556141    3.71727463374005
C         0.84189721256281    8.67727039903657    3.68456980458313
C         1.80337009586514    8.74349587792254    4.67395242808094
C         3.74858242503916    9.06953497838782    6.94982646354725
C         5.68468282237627    6.51553841590752    5.80754712215655
C         6.81881310065769    5.68542568637890    5.97883067536538
C         7.09804480917952    4.68059410700445    5.03433984190800
C         8.17989663088150    3.85372742506737    5.17758888327035
C         9.02326146632712    4.00518194880070    6.28356145570604
C         8.78369125104225    4.97264193379769    7.22224738216281
C         7.67896346198027    5.84878047335322    7.10418922948497
C         6.15742279785273    9.04240815579770   11.38895010426378
C         5.08937190537372    8.16316390561796   11.55557379291229
C         4.21435730326117    8.31875353124377   12.61287219622720
C         4.39545319553122    9.36380434001366   13.50558958408476
C         5.44562570605502   10.24984374447137   13.33324731984169
C         6.32804566475405   10.09458030461279   12.27744856038854
C         8.22678436019006   10.21823657155935    9.76159286309777
C         7.97806603124649   11.03414055174993    8.66422855607321
C         8.70079331246018   12.20004031295104    8.48507559892601
C         9.67819039619815   12.55260680585399    9.40090268946371
C         9.93827399335975   11.73551113034276   10.49050788102085
C         9.21913275091887   10.56868014086056   10.67308922046432
C         8.46630230903182    7.54789880448228   10.63348692495244
C         8.22012702456919    6.76439137087868   11.75354881536907
C         9.17685145434032    5.86390159549182   12.18969760870583
C        10.37456119215877    5.73344241320489   11.50750060347949
C        10.61896462443077    6.50736909748845   10.38336785355822
C         9.66850967028024    7.40876370745102    9.94458365436717
H         2.45305455655453   10.51634396210564    7.40288750436261
H         0.52312751474909   11.29939782937350    6.49227611298532
H        -1.19626950983703   11.17616337310410    4.71639390312850
H         0.91201393699189    7.95122088586370    2.89025914041000
H         2.64466810915563    8.07168083220567    4.67516917043659
H         5.05939824532943    6.33340018830617    4.93488089043020
H         6.43607063953076    4.57221643591877    4.18661913607146
H         8.38395186849221    3.08689491830019    4.44604931013391
H         9.87459694396903    3.34930165751771    6.39748403423830
H         9.42542329630695    5.09670029359662    8.08200545758002
H         4.95146076159095    7.36601845930097   10.83045417244656
H         3.38815498361043    7.63442498321007   12.73851897074043
H         3.71056250489481    9.49304695623327   14.33063004394810
H         5.57691425410219   11.07094550159311   14.02291104680669
H         7.13756405205214   10.79641625736320   12.14106838052536
H         7.21546681004247   10.73730615347335    7.95149838226504
H         8.50551687763013   12.83178448449631    7.63119059656845
H        10.24455443714300   13.46185719993751    9.26340115969353
H        10.70691868121963   12.00870953835538   11.19889195747439
H         9.43104664455125    9.92240608948830   11.51409993020457
H         7.28388289992357    6.85873199286592   12.28554636600846
H         8.98367232827843    5.25846649071521   13.06336082496122
H        11.11588074378827    5.02543846057195   11.84779111295388
H        11.55046142018347    6.40139430015614    9.84603443533307
H         9.84438030049533    8.00650847738465    9.06084411609597

