25
CSD_code = NELLOH | q = 1 | S = 0 | Stoichiometry = C6H14AuCl2N2(1+) | MND = 4
Au        5.92463478533424   10.11973846859740    7.16351799084785
N         7.34471569727672   10.23817471517931    8.77735432088800
H         8.10806709117073   10.88529598758185    8.57963235154976
H         6.87573848789521   10.60150478483553    9.60896723296388
N         6.03770866263109    8.02849965177946    7.66310099863634
H         5.12382706046953    7.57546669159091    7.65852026272986
H         6.59443643438517    7.54660389125934    6.95511556244103
Cl        5.91544578554336   12.32183649458523    6.75776406143358
Cl        4.44178943379683    9.83838969697377    5.50939047306712
C         7.86193617392900    8.87685942420139    9.04891013299493
H         8.56916856019011    8.63210590201688    8.24931278568831
C         8.56565245831666    8.79185060025935   10.40402429734652
H         7.87029160819472    9.08664063474983   11.19305386574938
H         9.41575561942411    9.47466034934833   10.42455079654881
C         9.04087776358176    7.36125545958152   10.65575699082455
H         9.78478864225774    7.08421049205944    9.90751197019939
H         9.51833350206927    7.31144158298336   11.63332226994742
C         7.86842724322477    6.38987867188061   10.60376052660749
H         7.15863336123670    6.62332433246552   11.39858915915696
H         8.22411083696790    5.37305692831821   10.76400610952012
C         7.16650255998069    6.46592427377275    9.24822466032338
H         7.86389187249911    6.16790656923662    8.46226451388399
H         6.31803245551721    5.78105342095037    9.23036899500730
C         6.68797560998990    7.89491332593619    8.98748208445449
H         5.94875829412182    8.18080764985036    9.74329758717544

