77
CSD_code = NELLOG | q = 0 | S = 0 | Stoichiometry = C32H37N5NiO2 | MND = 4
Ni        0.01010796372863   -7.94072314419863   12.52801961220679
O         1.49935383815420  -12.12092696646174   12.76441527486346
O         0.54892049229953  -10.69994611001435    8.97334094767691
N         0.34807823104766   -9.71901322425022   12.64012697364416
N        -1.85273818527775   -8.28659937415990   12.62355616234863
N        -0.19054177157866   -6.13177903568473   12.92309727365407
N         1.78503720171195   -7.65434582071431   11.85967845106109
N         1.58221326694816  -11.52182826208623    9.28279790261881
C        -0.39547190554115  -13.30631434174842   11.93302224297316
H         0.28822163096993  -14.15109973356303   11.91497708593227
H        -0.77083076752528  -13.12449843331887   10.92813300050724
H        -1.23455549813998  -13.53356717711447   12.58681314735512
C         0.33530948425336  -12.09038182441308   12.42372680364094
C        -0.40224932060251  -10.78485599900220   12.44312080331528
C        -1.78501312546160  -10.69945607202055   12.27641732832952
C        -2.45047172857248   -9.48632718030158   12.41321239701968
C        -3.89081102795610   -9.31510774893864   12.39551808992109
C        -4.85502090923347  -10.42349105734363   12.15644926310601
H        -5.87766599249113  -10.05734106219045   12.18101173232329
H        -4.74482303645206  -11.19691778368392   12.91658118274144
H        -4.67593800765206  -10.87929628147250   11.18265320002980
C        -4.13533931216853   -8.00002249326426   12.64041702143550
C        -5.44455204734289   -7.28834251494644   12.69927264239400
H        -5.42026715560897   -6.53533369784281   13.48985334814216
H        -6.23918261630235   -7.99683456288778   12.94027887670968
C        -5.75606763651487   -6.61278996136467   11.36132654508741
H        -6.70605390372579   -6.08568412073151   11.41312152368035
H        -5.81362069999376   -7.35610052258392   10.56942081984081
H        -4.97498220894297   -5.90101719127557   11.10436488869941
C        -2.84512589523104   -7.35552470402545   12.78683729356690
C        -2.61880419319496   -6.03162401073481   13.08076497601081
C        -1.34022229693681   -5.47251019635802   13.21177752851360
C        -1.04545609043004   -4.14865736041100   13.68749895825419
C        -2.06626173884942   -3.12455088046949   14.05881474593681
H        -1.63311786221784   -2.41517022375426   14.76681787841317
H        -2.91261933891648   -3.60707865407776   14.55256334738426
C        -2.55882011129438   -2.36639931296473   12.82369608533847
H        -3.30486727291634   -1.62548714194477   13.10279847227982
H        -3.00139864945237   -3.05376822189300   12.10619538391384
H        -1.72843188695497   -1.85797716565571   12.33906548776441
C         0.31810553764715   -4.03040482928785   13.69161483528429
C         1.15211989569501   -2.86477494305026   14.09491320573236
H         0.53206544657208   -2.06983036598131   14.50040957937309
H         1.69617098909401   -2.47022991717755   13.23638652992224
H         1.88009604012923   -3.15721076693130   14.85117156576949
C         0.84432646129263   -5.27463764409891   13.20167894131089
C         2.18799788444779   -5.55164318564796   12.97997947514108
C         2.64412113271346   -6.68154484296551   12.32180387371238
C         3.96250064815088   -6.95294596752088   11.84349622659271
C         5.16909657998113   -6.13371916157667   12.13841102253960
H         5.99713642849014   -6.42602001238188   11.49796907748514
H         5.47436262671850   -6.26686214667233   13.17713133300431
H         4.96487236863516   -5.07513191408786   11.98240478097235
C         3.86678779338701   -8.07985504258117   11.05309874766825
C         4.96381050305787   -8.76759083857152   10.30947070891590
H         5.63493773443342   -8.02276947846120    9.87354473915247
H         4.53935545256396   -9.35342194690940    9.49164690428790
C         5.76613560265903   -9.68448147061878   11.23586371942944
H         6.54350722535248  -10.20273623899703   10.67873843693078
H         5.11650166146564  -10.42484066389207   11.69716244793354
H         6.23339301492438   -9.10544721358832   12.02899695483146
C         2.50065973398341   -8.47553934468781   11.07701640216803
C         1.90706308677858   -9.53610820691017   10.28367528535587
C         2.39364998001940  -10.84965106600159   10.04653643922843
C         0.72633404825749   -9.51090051458077    9.56649435773006
C        -0.27979504660069   -8.43457569618073    9.35522279373720
H         0.12554769367234   -7.70665514597005    8.64527930636597
H        -0.42800990997505   -7.90622154166210   10.31739214298054
C        -1.61020442976333   -8.97749704674947    8.84862748172831
H        -2.31666517803542   -8.16248151367799    8.71368225433957
H        -2.02488880743572   -9.67969275530343    9.56745498235215
H        -1.47800951296278   -9.49064315668157    7.89912397049464
H        -2.36752969496393  -11.58579379600680   12.09679139398834
H        -3.46806445543793   -5.38940210054813   13.25273095195293
H         2.91133114095518   -4.80572397117507   13.27371173987108
H         3.27449817610770  -11.31839901178602   10.43377164507390
H         1.32066223235700  -10.00092697120813   12.80654104800684

