31
CSD_code = NELMUO | q = -1 | S = 0 | Stoichiometry = C8H13N2NiO7(1-) | MND = 6
Ni        4.31993971611793   -0.03136966779179    4.25709114553533
O         0.56343904891169    1.62435825594681    3.85383463905268
O         2.57146603616216    0.79068935303941    3.42301519221620
O         5.72004523599603    3.36672842915352    5.53650081798934
O         5.16883645434615    1.59618735249846    4.33695641326892
O         3.41256263534745   -3.63094943871430    5.41143485482809
O         3.57740210519246   -1.71409605791467    4.31146427557198
O         4.90766724073674   -0.14663377600564    1.99889485839367
N         3.20184134620734    0.87110815833234    6.07408391003533
N         5.54179809528184   -0.78578498819751    5.91062365815236
C         3.63736072849171    0.10909343386140    7.22679872295824
C         5.15575945837057   -0.12622551861985    7.15810959991204
C         1.80238270534846    0.75106565361966    5.71296676106070
C         1.61462238628397    1.09585617128815    4.18760202668126
C         3.66190939101391    2.25794011079511    6.08953025800181
C         4.96915495334209    2.43776197435604    5.27047079492244
C         5.30133053412799   -2.23260085374306    5.89643838998823
C         3.96348410990493   -2.57025687911926    5.15827170656365
H         3.40402526078640    0.62148835803559    8.17917991323009
H         3.12576571996162   -0.85699469713970    7.21611389660166
H         5.46535830094982   -0.72568205805546    8.03025317524727
H         5.66350963735244    0.84084916797466    7.20226776123380
H         1.14463356904774    1.40149453804472    6.30901995325047
H         1.48263151787619   -0.28759527304365    5.82933134245673
H         2.91860167056178    2.88799321686362    5.59317093740256
H         3.80629070527187    2.63739721368731    7.11129063594104
H         5.28663080556925   -2.65668624050430    6.90898202132608
H         6.08980237106249   -2.73128467496415    5.32550104234145
H         5.06337115845857    0.80697010626614    2.02524880520426
H         3.95115324273414   -0.25063309254333    1.87536210938880
H         6.52392385918508   -0.59128827740713    5.73459038124216

