68
CSD_code = NELTII | q = 0 | S = 0 | Stoichiometry = C28H30N4O5Zn | MND = 5
Zn        0.04645404675199    0.09747024606894    7.40914148256737
O         1.52382339672844    2.96170451343001    7.71466747676080
O         0.38145553376836    1.71584321572719    6.27045815537766
O        -0.35214638205560   -1.64387840727134    8.38277727183125
O         0.62528034736953   -1.54997956712855    6.43707270329423
O         1.95591225332021    0.48701976664723    8.30244345282696
H         1.93882240792247    1.48791460501350    8.14508354761158
H         2.62663773421167    0.14993459393789    7.70032198040559
N        -0.96445223662266    1.42966726266475    8.70178391032498
N        -1.87883119150664    0.24252131478448    6.53619057896804
N        -2.09025174478393    7.40251608150315    4.88747879361767
N         0.47698786459469   -7.88056994061806    7.25038537406755
C        -0.36531139214850    2.00803149784859    9.72400483430923
H         0.40949197064690    1.42649530174887   10.20070903725808
C        -0.69090759158402    3.28553591621306   10.15716000663660
H        -0.16570729456030    3.73030158273802   10.98665156577379
C        -1.67458887326949    3.97765220234400    9.47339767661788
H        -1.93628250566688    4.98791418902215    9.75105199554596
C        -2.31571828858206    3.36155325951191    8.41132995149563
H        -3.06760511940919    3.89628965396193    7.85453508067813
C        -1.93588877827036    2.07125790821125    8.05098957669657
C        -2.52199432757035    1.34731258328324    6.91160239081564
C        -3.66644714827459    1.77582317529778    6.24023320283160
H        -4.19639656045816    2.65907707983473    6.55720956271597
C        -4.12017432413461    1.04776889866918    5.15387621894964
H        -5.00044872597451    1.36655664456039    4.61477798203246
C        -3.42756927698626   -0.08857188765178    4.76884872380578
H        -3.74404438676235   -0.67689514679127    3.92239333011287
C        -2.30675824075679   -0.45249642874976    5.50096653491482
H        -1.72157228224038   -1.32557904139075    5.24920416509512
C        -2.85460259020050    7.32011256964413    3.66522311244889
H        -3.31317273121498    8.28492929272467    3.46047043098129
H        -3.65623128182721    6.58548151823066    3.76779355546844
H        -2.23395080976771    7.04288301847251    2.80481526644031
C        -1.69931499571813    8.71881958332635    5.33365669771875
H        -2.36410578622116    9.46001971725462    4.89540130310429
H        -0.66938183578293    8.96658926981409    5.04982095331215
H        -1.78944873485398    8.79161735769076    6.41920574512418
C        -1.37368939396244    6.30408896271547    5.31088990400538
C        -0.43293510608798    6.40058606843372    6.34803770652598
H        -0.22377544110957    7.35138740544792    6.81023870394407
C         0.24916637604571    5.29085026272081    6.79541045284904
H         0.97051394961666    5.37691655232290    7.59454464491029
C         0.02966114355235    4.03873953655323    6.23285016452342
C        -0.89791057930612    3.93194125853007    5.20256976231158
H        -1.06726992517450    2.96243053064238    4.75728395175357
C        -1.58492064536005    5.03554376759250    4.74798870973240
H        -2.28906762965772    4.90445444370153    3.94227128913235
C         0.71270034289089    2.82793091800210    6.77637201313663
C         1.18798964092675   -8.53790246103080    6.18121881998865
H         1.13956719107314   -9.61522221281398    6.32216524099705
H         2.24302457052592   -8.24236689724262    6.14711822141376
H         0.72961902940148   -8.30540657914096    5.21687247977234
C         0.13905165960689   -8.65486386812072    8.41951460039204
H         0.25340426881150   -9.71362592302631    8.19852187565938
H        -0.90160713411640   -8.48277218232991    8.70479433225660
H         0.78082656854576   -8.41014961406879    9.27387666423355
C         0.41893964287272   -6.50998415964249    7.29468390489776
C        -0.13065078740788   -5.83771418444021    8.39930801417671
H        -0.49630367082063   -6.39157498445002    9.24829971746071
C        -0.21192228071676   -4.46422178123769    8.42779887981236
H        -0.63296816446961   -3.95621550483218    9.28186514191082
C         0.25286243807522   -3.69762441446056    7.36290189573083
C         0.80140767913860   -4.35222677980379    6.26350856062817
H         1.16698707749024   -3.75930150888715    5.43877554534189
C         0.88456525755408   -5.72548970432584    6.22626424687896
H         1.32012674995241   -6.19025397144712    5.35703591081235
C         0.17174705401829   -2.22409637596778    7.40318501623587

