23
CSD_code = NELYIM | q = -1 | S = 0 | Stoichiometry = C4H12Cl4N2Ta(1-) | MND = 6
Ta        1.66851224562603    2.19302536835018    2.16722588828016
Cl        0.42848768026054    0.45021761908695    3.10457169467145
Cl        3.32359724155240    1.87524235452841    3.78379542719977
Cl        2.82291919517667    0.63329985414414    0.74730994058935
Cl        0.51938175893069    3.72823195930922    3.61856815715507
N         2.71099185861105    3.66527020949127    1.38105798436238
N         0.27620650988718    2.45705216308469    0.80201289020018
C         2.16683576779280    4.97337591272319    1.13125845675003
C         4.14886151269298    3.67104085695134    1.30277311822304
C         0.54941210300105    2.48767412330056   -0.61011779555427
C        -1.13256574534832    2.30894515194185    1.06121593075227
H         2.33591889498261    5.62724011571497    1.99837773549123
H         1.09256658664835    4.88121132596167    0.98385721406366
H         2.61812388626903    5.44328997995979    0.24729677336245
H         4.50774315688152    4.30042047583264    0.47874541088640
H         4.49462469494906    2.64959350085945    1.14335188867086
H         4.58509747505873    4.03942641928653    2.24218903310843
H         0.44826385296033    1.48065815303120   -1.03871143943448
H         1.57651196880332    2.81502453860143   -0.75900052215165
H        -0.13087113978996    3.16382746702911   -1.14478845591937
H        -1.73784433276253    2.90351866808223    0.36544131637714
H        -1.33756975915735    2.64007559518349    2.07935730741819
H        -1.43210541302170    1.25473818753382    0.97531204549734

