32
CSD_code = NEMCUE | q = 0 | S = 0 | Stoichiometry = C10H15Cl2NO2PtS | MND = 4
Pt        1.90002919769123    2.91800584747745    1.45146328370339
Cl        1.43751685704021    4.13422498214875    3.37153160690452
Cl        2.11185856291931    1.64907141105040   -0.45911445409656
S         1.14383291714890    4.71119625609806    0.33671312303085
O         1.88186062850237    0.14399592763032    2.09620117216813
H         1.70913959530324    0.24318109817352    1.12263604355052
O         1.18637358108378    4.70197646095462   -1.11037714476379
N         2.51870369635278    1.31529636384597    2.44926687265373
C        -0.55260262528808    5.12426427819965    0.82989877270582
H        -0.84227883856311    6.04268369878192    0.33275554217948
H        -0.56933169806191    5.22574212418349    1.90893694201167
H        -1.19639712624797    4.31018685539565    0.51255255036326
C         1.98374327351073    6.22917284698920    0.87936289907236
H         3.02711905930615    6.14799977165279    0.59228563183992
H         1.89061014568299    6.30036565454212    1.95669302964377
H         1.52448233613061    7.07149330226841    0.37528481521376
C         3.34696937748144    1.26976034189354    3.42958811607215
C         4.09814869975411    2.48570791672151    3.75159062598003
C         4.30558704715630    2.86859258883555    5.07425221646949
H         3.89999312078532    2.27013315167479    5.87528820851423
C         4.98046508098423    4.04098349158342    5.35955791630270
H         5.11583893935741    4.34367355923004    6.38687100381900
C         5.47284495628146    4.83042445188352    4.33391842496886
H         5.99405743252728    5.74811160945374    4.56116527712675
C         5.30009123313473    4.43928663573736    3.01563092541080
H         5.70145280890977    5.04379711852172    2.21612758376910
C         4.61511096708039    3.27565035340704    2.71893764829616
H         4.52934336662782    2.94138510476953    1.68763336110838
C         3.56118263365273    0.01732620449991    4.20874589140577
H         2.75630258384162   -0.09916118430789    4.93442165489006
H         4.51382866499261    0.03783045764944    4.72839893155163
H         3.51252352489019   -0.83695868093021    3.53518152810868

