99
CSD_code = NEMFUH | q = 0 | S = 0 | Stoichiometry = C44H42O4P2S6W | MND = 6
W         6.51653236873275   -1.09687553806277    3.73968892736018
C         6.03155050422146   -1.19568454157510    5.66048121272988
C         8.28446188371277   -1.87440569254598    4.19582174884370
C         4.73183019142939   -0.30431782307935    3.36215882830119
C         6.90268880408570   -0.96204541397675    1.79504170417126
O         5.71932757925700   -1.22987317187360    6.76453087848115
O         9.29156914125253   -2.32040257506910    4.52613943054233
O         3.70767903256521    0.16443354199379    3.15761741814326
O         7.05248164482365   -0.86113036320234    0.66245454189069
P         7.32118642663151    1.18219522991719    4.00048553097579
P         5.51770244428350   -3.28385930789191    3.36650853640304
C         6.13944142889553    2.39220102877222    3.33637132173739
C         6.08471709541711    2.52227996864366    1.94982942944383
H         6.79496157020126    1.97673840506076    1.34092406400965
C         5.13733435435169    3.33533520906325    1.36021033956165
H         5.10308065573592    3.43194346971820    0.28485512859652
C         4.22569893297301    4.02005169200567    2.14883766716985
H         3.48067509082678    4.65254598242330    1.68934826905344
C         4.26491999334359    3.88397569415469    3.52553798332073
H         3.54866152326717    4.40885883913412    4.14103161406047
C         5.21358122285888    3.07005536085454    4.12025274085627
H         5.22324158185252    2.96071590599265    5.19513108473293
C         8.84611964302386    1.72984291219425    3.16477192037056
C         9.16034836808710    3.08467275089337    3.09119237760300
H         8.48515284095942    3.81592393113235    3.51615878748579
C        10.31972663052202    3.49388091738081    2.46087343906673
H        10.55877855914204    4.54584984740394    2.40261776916175
C        11.17359240918557    2.55677180712364    1.89930269998692
H        12.07802973895290    2.87993589598107    1.40538440444456
C        10.86357464556441    1.20914372019422    1.96578257794173
H        11.52556841332886    0.47897441784878    1.52382907035366
C         9.70176437377701    0.79679602644232    2.59543349978983
H         9.44532649257237   -0.25341279752831    2.64585945818005
C         3.80199256709144   -3.12177936339828    2.79793333062273
C         2.70706812455659   -3.24280525232553    3.64475656783273
H         2.84764448957489   -3.52778383868421    4.67766666573262
C         1.43258141887011   -2.98797837957103    3.16780902215972
H         0.58378463007893   -3.08435371071201    3.82934092726320
C         1.24374911886658   -2.60362962347873    1.85162172316263
H         0.24796991598445   -2.40297277979265    1.48498499407316
C         2.33461425559387   -2.46447085614797    1.00706963831239
H         2.19017583443479   -2.15289615506630   -0.01711439739087
C         3.60738976519610   -2.71517906781551    1.47917231243747
H         4.46796027757827   -2.59673504033980    0.83188004923347
C         6.20345760917672   -4.37928688713235    2.08104731141130
C         7.50686913694303   -4.18814154745513    1.64150814371104
H         8.08771878723589   -3.37252236689502    2.05336108869115
C         8.05186048295199   -5.03082850000661    0.68859433999141
H         9.06540026950121   -4.87672780138633    0.34836827930885
C         7.29615694715169   -6.06894224965278    0.17009372868151
H         7.71879959065817   -6.72464601515266   -0.57680744663428
C         5.99545937962555   -6.26629893568425    0.60734882922684
H         5.40627242881925   -7.07589581145874    0.20166708598173
C         5.44948951264808   -5.42762967273715    1.56068400771332
H         4.43178747499456   -5.57507614724594    1.89744265775888
C         7.63261659971033    1.79305205267519    5.70896697592411
H         7.91550784947185    2.85092506761466    5.68651167386047
H         6.69399307265237    1.68104354977766    6.25835177599323
C         8.72043388678425    0.94840314414947    6.36378095308558
H         9.63507153124557    1.00853718305772    5.76670749814494
H         8.39901380568882   -0.09759751329536    6.37143389900649
C         9.03392587351902    1.38628404464963    7.79455188416909
H         9.79258240911438    0.71327573237715    8.20137625080436
H         9.44944796204017    2.39665482258383    7.79840537839708
C         7.80058680808471    1.34513002086333    8.68461852903635
H         7.23252372646833    0.42519641299113    8.54207634685397
H         7.14845368424237    2.20093395094290    8.51524398931661
C         8.96651930712573   -0.11248024689373   10.72438090572126
C         9.90422461415208   -0.32352836023066   11.65744921718775
C        10.51271334706108    0.71134895602518   12.53715430277335
H        11.58575438104867    0.54802427113401   12.61928689712632
H        10.08256707986289    0.65854544247244   13.53709386129309
H        10.31968895717213    1.70109080496255   12.12938771227509
C         9.40342258960673   -2.66631860961488   10.63504564012741
C         5.39121254014755   -4.48569049676346    4.76051032483737
H         4.97797417405713   -3.95371304397653    5.62293112737336
H         4.71571836854433   -5.30280607213263    4.48454374291060
C         6.77838116602700   -5.02112102838190    5.09800713428625
H         7.16260489451018   -5.59285831246185    4.24820525125767
H         7.45450620414662   -4.17834087241715    5.26711359029286
C         6.76335974890420   -5.90817259633230    6.34040572371489
H         6.00753364466320   -6.69019378482573    6.23609393426757
H         6.50480075127793   -5.30512661341822    7.21361246662936
C         8.12377480677899   -6.55354850071772    6.54893697996620
H         8.92060501152438   -5.81169384983449    6.55944206596100
H         8.33023803082260   -7.28913557642257    5.77159534675280
C         8.90163448163820   -6.25896151684084    9.19317063600809
C         9.81830306626966   -6.53370676217007   10.13031015128850
C        10.41770159928152   -7.86720999485634   10.40597961362069
H        11.49012018730613   -7.76967089660305   10.56439241197158
H        10.22596492386961   -8.53635279005881    9.57024162845843
H         9.97850818846469   -8.29977859463897   11.30464384232276
C         9.37010146019198   -3.97380743225679   10.32725979964589
S         8.22369652740609    1.45859463650857   10.45495650656129
S         8.38182544450235   -1.50220543528486    9.80107212606477
S        10.44435823396165   -1.98574568001595   11.88073842103005
S         8.22181622886812   -7.48029768297245    8.12474775307795
S         8.31562127870598   -4.59671626093568    9.06389667959263
S        10.35058394965125   -5.19109689571368   11.13817578696816

