41
CSD_code = NEMGEU | q = 1 | S = 0 | Stoichiometry = C15H22FeNO2(1+) | MND = 8
Fe        0.73800828624485   -3.63854482943551   14.96629325591122
C         0.64516775330399   -5.47136335494416   13.84200464163324
C        -0.80785617454340   -3.64991548782467   15.81327385147118
C         1.65518111979610   -4.60169897415277   13.32529065329021
O        -1.75672758504725   -3.71333783901381   16.43716673645912
O         1.67806950824263   -1.91412885510495   17.09279256473795
C         2.64265299764583   -4.38827536848729   14.33318620206028
C         1.58531020116234   -3.83217775749134   12.03970222542718
H         0.80145970131733   -4.22915757885235   11.39559576978603
H         2.52697778311689   -3.90474537369770   11.49228096807895
C         1.01739957353872   -5.80306227437676   15.18069201240140
C        -0.45275916000277   -6.14958446718671   13.08624738118041
H        -0.24018292753377   -7.21728747115246   13.02651092011429
H        -0.54048081240056   -5.77434375638466   12.07038481022330
H        -1.41222862086478   -6.03205658020783   13.58524525045213
C         1.29878346200007   -2.53642570529225   16.22001916098820
C         2.24448666979712   -5.13746128751261   15.48432865923230
N         0.26994950636537   -2.22282029134102   13.42981490536690
C         0.32610968628738   -6.79290293269796   16.05112439130404
H         0.77299006324677   -7.77699097599454   15.90090504541625
H        -0.73039530607121   -6.86227054857404   15.80878140734164
H         0.42978430709429   -6.53708889703221   17.10217150419642
C        -1.04783054952193   -2.52235544462598   12.86204058506233
H        -1.25966020397390   -1.87238100066319   12.00708255668027
H        -1.81385861943663   -2.36096381556961   13.61669762339971
H        -1.09957962450218   -3.55596498971196   12.53703711805617
C         3.05307047841017   -5.32412191410989   16.71999801717405
H         3.66592320706253   -6.22095492632177   16.61629813846900
H         2.41903162072986   -5.45332798028022   17.59318707292397
H         3.71635435866158   -4.48073982317524   16.88894964953943
C         1.31667222569275   -2.36183567476648   12.38814906934738
H         2.22904113905655   -1.92148687442539   12.79314314998584
H         1.03255171188074   -1.79387146892843   11.49301401555764
C         0.26246778932063   -0.83233151583616   13.89338082669993
H         0.05207660316442   -0.14361375019213   13.06885213299294
H         1.22824902635244   -0.57615601568364   14.32297688978605
H        -0.50256669719978   -0.70649279624240   14.65661052495710
C         3.97816908463444   -3.73606885243936   14.16702523130349
H         4.75745624222684   -4.49755248375371   14.21069437976065
H         4.17334862871624   -3.01940719574123   14.96150433686461
H         4.06168354602914   -3.22663287077580   13.21194636436694

