39
CSD_code = NEMJEU | q = 0 | S = 0 | Stoichiometry = C7H16CdN6O6S3 | MND = 6
Cd      -10.31895520463406    9.29903120821075    2.60610896068122
C        -9.69332579904478    8.28664251929308    5.19599730704543
C       -10.92440520803860    9.18811587892933    5.37599009671732
H       -11.17818464861751    9.33961214039720    6.43055108855075
C       -12.07044453851378    8.40701599334999    4.68793392161290
H       -12.24183367353438    7.49442439480910    5.28814250426646
C       -13.35518260614583    9.27243256977777    4.74823904170764
C        -6.93825267991119    9.09315363472458    2.40450016843444
C       -10.39984185086549    6.03252097687452    2.41644079824740
C       -11.05368985671640    9.71427064021279   -0.70248609081420
N        -6.00843910520749    9.45460630883504    3.29785678268102
H        -5.56692024202840    8.77089929536704    3.89129406821407
H        -5.98470635668365   10.41754699351069    3.58930536610937
N        -7.03328265995241    7.81395685471848    2.04547293955046
H        -6.56817087458832    7.11118670496979    2.60041845849429
H        -7.85590439987709    7.51192668642299    1.51296245194630
N       -11.49172718352763    5.26271068300505    2.33819703147192
H       -11.88285812123130    4.86938459901806    3.18005844997440
H       -12.12635459257759    5.43474074122660    1.57544955358919
N        -9.57846048067764    5.90660616351420    3.45805974578975
H        -9.93517237427214    5.51271843147699    4.31975722898872
H        -8.93087198047510    6.67517788492877    3.62847846522252
N       -11.90970743127875    9.41553429865096   -1.68973954139719
H       -11.60472024079574    9.00935705975545   -2.55796344734820
H       -12.88081648683466    9.64146675776741   -1.56160357697245
N        -9.75968420681902    9.45778846702393   -0.87095269223086
H        -9.43691890656805    8.90289422384310   -1.64674190172244
H        -9.09736029224386    9.67424821736394   -0.12547308792001
S        -7.82965968135188   10.29435405106753    1.63564623561772
S        -9.94160429734795    6.92450240955241    1.05994375483276
S       -11.66280445517333   10.47526387739050    0.67026826446392
O        -8.96048079733111    8.55376489684945    4.18013891532439
O        -9.52696402505394    7.33386596938773    5.94400065874547
O       -10.78270451518922   10.43418759242877    4.69650517864642
H       -10.00648342476766   10.87530452241758    5.06753933237555
O       -11.80475657748633    8.08243645695432    3.37386778484924
H       -13.18618632027325    8.95568357620220    2.95719428617079
O       -13.83749090263377    9.46419769568199    3.53527673451812
O       -13.83667300184255    9.68736862407633    5.76706476352231

