43
CSD_code = NEMKUM | q = 0 | S = 0 | Stoichiometry = C11H25Cl2N3OTi | MND = 6
C         6.95082445090294    0.52421767618685    9.03705400634456
H         6.62218930470668    1.56354012299096    8.86360468333745
H         6.39089241707427   -0.13210938248534    8.35283868540598
C         8.46382658148510    0.45334306550873    8.68747689897866
H         8.74175720258601   -0.55864993761579    8.37181296508904
H         8.69885423353925    1.14955691483133    7.87017540398143
C        10.28851444710988   -0.03341567531070   10.16666049063458
H        10.89784562338751    0.52711335759781   10.88500436366012
H        10.89213857345236   -0.26381625532111    9.27705008267239
C         9.77201260156178   -1.32592421048384   10.82390194898221
H         9.35130950530388   -1.98560448957554   10.06552705192139
H        10.61568856134013   -1.84900642080488   11.29803656240393
C         7.77400367184568   -2.06165581123007   12.07617415001812
H         7.30443895552232   -1.80868886693869   13.03220896376058
H         8.30463781563657   -3.02121575685233   12.19824251859253
C         6.62658852204056   -2.26934707287875   11.05756499133123
C         5.89803006100863   -0.92663202525166   10.73749869251489
H         5.18590053994507   -1.12695675418680    9.92149169262889
H         5.31804996780870   -0.66252458766952   11.63101111871125
C         5.61467497044845   -3.20408079358175   11.73630754103069
H         4.75251306285724   -3.35971895400992   11.09272796246030
H         5.26368630845865   -2.78293089854853   12.67516072242102
H         6.06663655513741   -4.17260470876676   11.94075200885444
C         7.07709840673267   -2.94970809188726    9.75970840704967
H         7.74671251764458   -3.78409900262322    9.96383749565302
H         7.56442331148239   -2.25178854872474    9.08681865847768
H         6.20686641322228   -3.34383397463808    9.23786496144094
C         7.03969239529246    0.78469420299621   14.40650729601816
H         7.05201351740252    1.71784748953072   14.99351393324659
H         8.02262161416059    0.31584606752343   14.50185094477044
H         6.28346851015753    0.12029961051294   14.86164810201237
C         5.45082913854302    1.72691528945272   12.92061159202375
H         4.66393637266303    1.16782983231078   13.45544722742330
H         5.16933061515502    1.82934405163412   11.86857505076637
H         5.50609900656736    2.73423343476857   13.36642448473743
N         6.73245502782702    0.19224975418450   10.41659813629095
N         8.72607486955437   -0.98789897758468   11.78855464337690
N         6.72537093613936    1.05134910437985   13.02402638683764
O         9.21766336701015    0.83008064442762    9.83689893731081
Cl        9.75412530077265    1.58091709280808   12.81425747111551
Cl        7.52396966296518    3.12070871349054   10.84623603414758
Ti        7.86170845264004    1.06284804329929   11.58689138882606
H         9.19112663091292   -0.70672327146509   12.65624534273526

