98
CSD_code = NEMKIB | q = 1 | S = 0 | Stoichiometry = C43H49CuN3O2(1+) | MND = 3
Cu        5.84798471284108    0.78857772320382    5.46240290247370
N         4.29990416763254    1.69373041557269    4.65050659199062
N         6.44358571663415    0.15668863785345    3.66606183151654
N         6.57413423727622    0.49435161116609    7.09362985112225
O         3.16415198113801    2.76200170876558    3.08141528248720
O         6.13431472702670   -0.69258673423397    1.64559971954640
C         4.55747705009235    0.99769975737008    2.26569304699993
C         4.04112903619394    1.81803368379955    3.40657494947139
C         3.53406830135023    2.68535170024614    5.39676830192042
H         2.80559350710069    2.15269346263536    6.02047681183471
C         2.83908583165628    3.48446557780304    4.26832011941973
H         1.75393862882704    3.52617333912241    4.36704231633106
H         3.24007694430058    4.49866351097966    4.17542581160947
C         5.74419205884786    0.14869984844610    2.59891418908644
C         7.53075015826618   -0.80516165596007    3.52714823969031
H         8.47330422680280   -0.24452461440453    3.49036343407894
C         7.21322806708077   -1.46839363349882    2.16517553495083
H         8.04285595011042   -1.43237927516070    1.45859420784593
H         6.87143474078687   -2.50187335735313    2.28075238168777
C         7.57005985081038   -1.74815208579909    4.70070339857851
C         6.39375151396289   -2.30015485569311    5.19464922221456
H         5.45037571411572   -2.08755858458450    4.71274985468225
C         6.42911928292267   -3.12321623561106    6.30641187719394
H         5.51088140215988   -3.53473379994142    6.69590144580119
C         7.63504275851203   -3.42120042685453    6.91734805212061
H         7.65987282073181   -4.07427084908687    7.77666631044962
C         8.81071232464272   -2.88777848137159    6.41631529834005
H         9.75557099426404   -3.12666608231318    6.88091291185607
C         8.77719404359258   -2.04598394309084    5.31867239179182
H         9.69443054132753   -1.62231482757416    4.93691357012416
C         4.43552643459467    3.50165514614170    6.28634485495101
C         4.04535061123824    3.80453715611305    7.58382190194291
H         3.08382478795392    3.47174157178082    7.94623258888312
C         4.88082616450743    4.53286730952917    8.41175202294291
H         4.56569250428303    4.77285064226645    9.41563541574605
C         6.12140602970204    4.94405565154752    7.95485779955808
H         6.77887177156286    5.50250401491372    8.60346836734186
C         6.51607273606839    4.64044972486649    6.66309477453865
H         7.48456360489833    4.95467078330578    6.30725923727970
C         5.67326588555627    3.93367669579795    5.82345208700785
H         5.98030940906464    3.71724003500800    4.80923097264700
C         4.94037005256230    1.96518650164927    1.11000351004485
H         5.49583575553133    1.39355362490103    0.36347271225916
H         4.01514393279422    2.32117660573969    0.65476587476509
C         5.74805421303027    3.14971401852141    1.56677450960896
C         5.19327646717777    4.42125924927968    1.55388947478711
H         4.16699556332825    4.55132979178104    1.24138159747989
C         5.93922564187305    5.53249780516461    1.90637142016365
H         5.46504040742604    6.49856241281139    1.85808176013855
C         7.26997843271029    5.41635854994222    2.28859082352664
C         7.80746627749605    4.13146375181612    2.34089900403947
H         8.83304103950581    3.98742151966800    2.64542503483297
C         7.06763026541633    3.02130785494103    1.98189865813561
H         7.53393826511769    2.04657986105719    2.00081184161855
C         8.14722430177407    6.61722788516869    2.60216884739264
C         9.35480141318569    6.60280585738959    1.65334508646820
H         9.97437242705483    5.72369250017203    1.80664397370598
H         9.96985940016391    7.48347023114643    1.82171780004249
H         9.02072713389134    6.60989082650994    0.61813267701362
C         7.41324478438767    7.94773174941493    2.41654919512620
H         8.09174845646160    8.76739921689265    2.64133754713691
H         6.56170268985400    8.02728947843895    3.08876210444677
H         7.07321496472344    8.06725986178585    1.39072314240188
C         8.62782671705219    6.53624727378254    4.05688814411300
H         9.14997848004643    5.60274381446807    4.25201394671234
H         7.77882219325031    6.61155718402949    4.73341797474574
H         9.30852251907558    7.35738200213743    4.26889753359470
C         3.41916897377148    0.05605904571616    1.77184458748034
H         2.48361738373399    0.61892164405079    1.78551750126273
H         3.64007792297446   -0.21905587538379    0.73957773856997
C         3.29436603841807   -1.19727005633480    2.59428018293887
C         2.79574291347050   -1.18135434389753    3.88886486925196
H         2.48363673435282   -0.24804434849199    4.33443296947635
C         2.66817535534424   -2.35164654351100    4.61829331571437
H         2.26833204442465   -2.28489556883678    5.61676361108633
C         3.02326773279245   -3.58377510417008    4.07976362159752
C         3.52974220862342   -3.58935901196173    2.78224074430800
H         3.81031075780204   -4.52018533408435    2.31515616721708
C         3.66786298907403   -2.42279690504716    2.05626012654622
H         4.05552032492038   -2.46677888053102    1.04848494205129
C         2.82036088733926   -4.89778106183189    4.81476344641821
C         2.47362600625852   -4.69583603496230    6.29266746177770
H         2.40194101647394   -5.66339451990690    6.78389127801711
H         1.51476495782046   -4.19665718942137    6.40772652779203
H         3.23864318993171   -4.11329405432228    6.80223499910289
C         4.08747621990437   -5.76099401773588    4.72624540397025
H         4.95903996677545   -5.20797634207710    5.07041364264248
H         4.27418145755728   -6.09404236565792    3.70958144069459
H         3.97389330482614   -6.64688094820969    5.34636805813502
C         1.65367931840915   -5.63454796932588    4.13971426050253
H         1.86792245860457   -5.82815118998588    3.09191062951633
H         0.74515977963126   -5.03890803915513    4.19695820693853
H         1.47526985424950   -6.58537005564959    4.63591360835022
C         7.16288930914892    0.07351922208159    7.98821240501446
C         7.87354161111917   -0.41645981908542    9.11788137804957
H         7.95393441041196    0.36646006520575    9.87237308152639
H         8.87174186896839   -0.73265920941667    8.81543957367749
H         7.34093997754339   -1.26848488237277    9.53990014601445

