63
CSD_code = NEMLOH | q = 0 | S = 0 | Stoichiometry = C17H39ClN4OZr | MND = 6
Zr        4.89775495171249    7.90479337483225    6.09369254989476
Cl        7.05549375352528    8.88019783961587    6.65726283270260
O         5.98934135165331    6.02658719061903    7.26152835720335
N         3.40112726225212    6.54153678253343    6.46383964169872
N         4.71940438474791    8.05443949705503    8.47773673660890
H         5.22046542610906    8.93674733867924    8.33868825377306
N         5.31678591908638    7.44231356037652    4.16692153274771
N         3.81735645399711    9.66164594271650    6.02742815017570
C         5.10137126309192    4.91058763073327    7.33810575897725
H         4.77948133334541    4.75528480113163    8.37124310412208
H         5.63410836144445    4.00622272368834    7.00624496749478
C         3.87663424309475    5.19058147404458    6.40997711531100
H         4.21657268743699    4.97619244645377    5.38175905617423
H         3.09048340580320    4.45573277559674    6.66606054893787
C         2.20300327226888    6.78646106474827    7.21814631453601
H         1.56188330872866    5.88485788000537    7.21677862780673
H         1.64542057888322    7.57409935541844    6.69402853779313
C         2.28780756684667    7.25788312670057    8.71582450794605
C         3.35884045982186    8.35522276933692    8.92706383462065
H         3.04301431450832    9.22171916697469    8.33113984435709
H         3.35334178740760    8.63694560216947    9.99538030366058
C         5.51778627912154    7.20338620924232    9.35659587748718
H         4.85529513873177    6.50885907470893    9.87152767048076
H         6.06010267815794    7.77824851144928   10.12233391335633
C         6.54499233626941    6.42388019852970    8.50707713339705
H         7.38204591011014    7.08060190546389    8.24807086911778
H         6.92313813003188    5.55240217230655    9.05951401659894
C         2.43273130525177    6.05634977940174    9.65835668411561
H         1.49182528928100    5.50873419519601    9.68831103362874
H         2.66008431181389    6.37756870230398   10.67479354551845
H         3.19207732564120    5.35935812527990    9.32165837229626
C         0.94301527927753    7.91568296854417    9.06714603597979
H         0.12249199832707    7.23184341512662    8.86243281715203
H         0.78219881425391    8.81925114946321    8.48489857453622
H         0.91078866436158    8.18012477840472   10.12287868156383
C         4.30920647823583    6.93781662542207    3.25476097653431
H         3.36734733814561    6.80368169921068    3.81055546261210
H         4.59882853154997    5.95532666506358    2.83318319051805
C         4.04487015235920    7.89664856108501    2.07620301014135
H         4.94199231007519    8.01440947177204    1.47175857699883
H         3.75819602755773    8.87263489455949    2.46084640730445
H         3.24816057150981    7.51324445422969    1.44221745673997
C         6.66891224242359    7.16476519080670    3.71984758503286
H         7.34929142413236    7.94793087790753    4.08856422211559
H         6.72511168068728    7.17648779182706    2.61800591854261
C         7.20306842455961    5.80442575621595    4.21556385383576
H         6.53708364968431    4.99955624345887    3.90369175544551
H         7.26776431446618    5.81426524982672    5.30417747987809
H         8.19314033019614    5.61374294326383    3.80485923139027
C         4.61967704732045   10.86554561879780    5.87853422243251
H         5.33122904625414   10.91208105374586    6.71603362659873
H         3.98787957324789   11.76888987723408    5.94736971810945
C         5.41609373358372   10.92620045692002    4.55263535491783
H         4.80306277088114   11.31280096163976    3.73976301683938
H         5.74838716357033    9.91328306681076    4.29395175276016
H         6.28268450448209   11.57470750594819    4.66286959633532
C         2.66082780438669    9.69300514189498    5.14423515054767
H         2.32535828687573    8.66192346900017    4.96552652258400
H         2.90193271259971   10.13994330695285    4.16320663109961
C         1.47994914985004   10.49270302562272    5.73265347330051
H         1.76076921944957   11.53159362161254    5.88933447259699
H         1.18092404908634   10.07221792518516    6.69016706008929
H         0.62918591643310   10.46382501513449    5.05543847293418

