45
CSD_code = NEMPED | q = 1 | S = 0 | Stoichiometry = C13H24MnN4O3(1+) | MND = 6
Mn        3.83486661530141    1.57244693951268   11.79970139811721
O         4.92362953364872    1.28484968240313   14.49923480770579
O         1.35945169481143    0.87623798715117   13.20647287095397
O         4.47766631727681   -1.28664544942168   11.81877563543858
N         3.20559765546675    3.64986688560754   11.67561944221323
N         5.68052974792420    2.14384431268513   10.67605116858959
N         2.94863467864491    1.56849814054777    9.81402147877048
N         5.79383545861606    4.69209725541528   11.89177238010131
C         4.55171716728699    1.51032699012040   13.43744342269857
C         2.30249727394134    1.15845338576267   12.62391729161043
C         4.24745662005309   -0.16737455355149   11.75815170523797
C         5.19478430291987    5.53063004700602   12.93877059637316
C         6.66165534021048    3.64025665306901   12.42217691898996
C         6.91253529405147    2.54618600606276   11.38121406762178
C         6.01399097133688    1.20093835398967    9.58538209539069
C         5.03078633540108    1.27248478319180    8.41842905872087
C         3.60869249286138    0.80897505214574    8.73514396049277
C         2.59440278600320    2.93871012197198    9.41043395611957
C         2.16487180627191    3.73174901654454   10.64042395905342
C         2.85159203333946    4.50942600728820   12.82087640252228
C         4.06325315316411    4.82260338192235   13.69333580574808
H         4.06392485194528    4.10355994673272   11.31797592442116
H         2.44109736255981    5.45606363986118   12.44228098122090
H         2.07832387311875    4.02147960925000   13.42010566710059
H         3.73807565920413    5.48208165226324   14.49817499717343
H         4.42296124996611    3.90456740543870   14.15652745038306
H         6.34026891830616    5.29027898288246   11.27555176211168
H         4.79323496554838    6.42330091143980   12.45131836375139
H         5.94898215589043    5.85843058908840   13.66656070606598
H         7.63227436459011    4.02671775926299   12.76038548466710
H         6.16543589465514    3.20158165858595   13.28650981148077
H         7.64013114769329    2.91583117574588   10.64397982578355
H         7.34428996265471    1.67466474280912   11.87757049244043
H         5.38633767776447    3.00734817593267   10.20717368261993
H         7.00865822551966    1.44235283121392    9.18656028231843
H         6.05938511279585    0.18574282854122    9.98700525037289
H         5.40775506840188    0.62510293064506    7.62543696236901
H         5.02163712893699    2.28821214637460    8.01319253494394
H         3.64042598134091   -0.24041718354168    9.03968765741121
H         3.01256623371267    0.87782594470598    7.81487590771134
H         2.06040567799235    1.08450196320492    9.97560468838366
H         1.79087070254047    2.94009078519562    8.66301734068452
H         3.46536476586421    3.42201077261798    8.95728705699877
H         1.97575906314287    4.77501396864522   10.35117556777259
H         1.23218667732385    3.32379576367926   11.04649317934405

