59
CSD_code = NEMWAG | q = 0 | S = 0 | Stoichiometry = C22H34PtS2 | MND = 4
Pt        2.75379471954427    0.00024299709809    6.64751294361256
S         0.79515228372796   -1.13296127516024    7.26510067477179
C         2.05775231419077    1.66490921794662    7.69470677593998
C         0.98990049928401    2.44067551050742    7.22855199794731
C         0.54437208871053    3.54685369966267    7.94190481124592
H        -0.28552512036579    4.12752335749970    7.55799685434630
C         1.14477188590982    3.91160003516880    9.13249125114713
H         0.78899817143588    4.77273813823759    9.68161457569805
C         2.20613604817923    3.16484303800531    9.61162686806977
H         2.69040078383127    3.44040097095123   10.53980423710147
C         2.64844305776216    2.06350912572883    8.89719852631121
H         3.49079229610661    1.50356766630124    9.29485660597854
C         0.30536715874096    2.09307350059708    5.93203316778628
H         0.47277652059711    2.87242601492976    5.18746418499685
H        -0.77000094816185    1.99761347318681    6.07759495791982
H         0.68494867176153    1.14525032241236    5.54079993314330
C         0.77967460815425   -0.93604458084354    9.08099940082394
H         0.59443130615397    0.12779345329984    9.22959151769843
H        -0.06913139844119   -1.50291769022444    9.46226709493241
C         2.08855770973284   -1.34543333029722    9.72379584076053
H         2.21116501733944   -2.42610047852396    9.73736166495765
H         2.12841051007151   -0.98342968201119   10.74890001841259
H         2.91389809398297   -0.90070454356111    9.16325166817030
C         1.06388089259930   -2.94108892717842    7.10783268832127
H         1.19109288512782   -3.10413816480193    6.03837961100563
H         1.99377086567243   -3.20467651222643    7.60725270823293
C        -0.11883303915436   -3.72914527699907    7.63549427598430
H        -0.20158848566930   -3.65207937819470    8.71719061667465
H         0.00159117280883   -4.78010099341939    7.38119377429873
H        -1.04318386016324   -3.37012124118756    7.18852980637724
S         4.71469403088687    1.13473317034036    6.03428436526570
C         3.45361098471609   -1.66360425783831    5.60117550819493
C         4.52116264380878   -2.44049418043577    6.06629782079951
C         4.96448831869683   -3.54756343830631    5.35292177999541
H         5.79460407394478   -4.12863087926295    5.73575739349599
C         4.36186052785838   -3.91256950884701    4.16353750117344
H         4.71621298577176   -4.77416735726396    3.61420212903472
C         3.30018196979132   -3.16535484740055    3.68586913702049
H         2.81422814569694   -3.44097474898337    2.75859592226268
C         2.86014453345743   -2.06311002859531    4.40030192013482
H         2.01735190899104   -1.50297039374371    4.00380552626065
C         5.20771766373632   -2.09331418582497    7.36181290464037
H         5.03836541995885   -2.87101617683771    8.10760192788108
H         6.28320695601383   -2.00163591518057    7.21531907077291
H         4.83150561080442   -1.14374341356161    7.75202591580676
C         4.73601446905721    0.93495806593114    4.21868592823428
H         4.92242635528805   -0.12901199014258    4.07263719232377
H         5.58560392612951    1.50163447318466    3.83888493361363
C         3.42890897767879    1.34216774228494    3.57095821287347
H         3.30563372171828    2.42272618536204    3.55500314405093
H         3.39223479866929    0.97808788074382    2.54644553537272
H         2.60230527557547    0.89794157372189    4.12998889332373
C         4.44223397878694    2.94283692432359    6.18669791400377
H         4.31359802807790    3.10794143760537    7.25567449102853
H         3.51226764130175    3.20341125237965    5.68577855816975
C         5.62358635218156    3.73278163089160    5.65871067247270
H         5.70740007892603    3.65410446007501    4.57721180167024
H         5.50046289994220    4.78391417984382    5.91106030125781
H         6.54847101305260    3.37684389862871    6.10705454619221

