50
CSD_code = NENCUF | q = 0 | S = 0 | Stoichiometry = C21H18BrN3O5SZn | MND = 6
Zn        3.66281548714447   -0.02260256949261    8.58509298573387
Br       -1.63626667679800    4.17326518037462    5.68485135631936
S         4.56010168510935    1.14015918350485   10.99918610059243
O         2.53829918719159    0.07784951041885    7.04691151559479
O         4.77010393775551   -0.08885582802143   10.20189597663776
O         3.23821132809986    1.16497614770446   11.61516791766879
O         5.65332244954854    1.43233003503645   11.88191565412664
N         3.66331897881398    2.00086831387335    8.71356562495458
N         5.46598220538004   -0.22942772414956    7.48261980658242
N         3.83611839202489   -2.10024258059255    8.54460537624235
C         1.67616981173326    0.98935581855869    6.79787600914777
C         0.63722684344442    0.71716850399420    5.86189624673452
H         0.63608587539655   -0.26132102361100    5.40635729392772
C        -0.31910889759102    1.63622238020744    5.53392360352000
H        -1.08986652563219    1.40150262946072    4.81465304613465
C        -0.29667386280897    2.89459066721878    6.14067419889717
C         0.67069607051556    3.21612347041155    7.05356514180633
H         0.67663716724606    4.19364188631105    7.51532035519656
C         1.67289459369424    2.29191726096471    7.39831945144171
C         2.63946085144359    2.69744253186902    8.36195126710725
H         2.49540361257340    3.69102279368473    8.80446800485812
C         4.53524417527399    2.46942214702109    9.72028960898458
H         4.22735873153781    3.40443575275730   10.19669506238389
H         5.56666985155258    2.51809251594489    9.37619843224957
C         6.23989901715493    0.69286739783899    6.96227239276459
H         5.80784312426134    1.67890226028541    6.86352750286667
C         7.54910806327532    0.44019280191802    6.53831663744002
H         8.14357673926025    1.23792335489909    6.12142421623505
C         8.05480873417125   -0.83041553003450    6.66592449646872
H         9.06270469531121   -1.06657203237733    6.35606656477054
C         7.24038131131658   -1.83893941437857    7.20749556521637
C         7.67700525750026   -3.18607902089454    7.36512111913609
H         8.68028200491793   -3.43683453218856    7.05342681350118
C         6.85720377472176   -4.12614226158521    7.89258194956070
H         7.18998858631789   -5.14676199117017    8.01226319532454
C         5.53441422812115   -3.79734550958716    8.30872427156140
C         4.65385375063761   -4.73968754400781    8.86671332059172
H         4.97695187487632   -5.76325613550193    8.99240127843517
C         3.39750661523784   -4.33496627259179    9.24442389159006
H         2.69547046914394   -5.02956471181123    9.67825337410397
C         3.03121755716873   -2.99585394832517    9.06478825243115
H         2.05382383160407   -2.64201361415287    9.35601736080329
C         5.06687485091543   -2.47164323155171    8.16987574740539
C         5.93450004253058   -1.47682585491883    7.60797988787134
O         1.91164784110663   -0.23682388669875    9.91386016686458
H         2.31098733518468    0.21982196909669   10.70270047147703
C         0.55652808047531    0.15695275929905    9.82168791264539
H         0.44882419816207    1.24496278206030    9.80434679995880
H        -0.00882713721421   -0.23987169174530   10.67136978334541
H         0.15011988120303   -0.24936314533122    8.89533699078483

