64
CSD_code = NENFER | q = 0 | S = 0 | Stoichiometry = C12H35CuO12P4 | MND = 4
Cu        0.22076696070389    2.01761093500360    3.62947233884502
P         0.99261367918572    1.62025952433047    5.78951691479360
C         0.76021885014029    2.09859929279072    7.59035885321311
H         0.49960150821988    3.16265978558409    7.63489780488850
H        -0.08348296241030    1.51752312357403    7.97643611705491
O         1.87377225423439    1.80547080109931    8.37950309971292
H         2.57181917702126    2.43094636953693    8.14397329926050
C         1.10453430422814   -0.23586581055943    5.97663612734810
H         1.72497835004615   -0.50472419373880    6.84201515502738
H         0.09838732337685   -0.64050436017260    6.11538831440338
O         1.60191920321199   -0.80612597305291    4.78037868987996
H         2.52675585081363   -0.55041117795545    4.68226695545525
C         2.80195665434064    2.01643093806313    5.59490849590317
H         3.40453180276958    1.46364231966753    6.33841645880751
H         3.11234328478820    1.70039662363847    4.58588319828619
O         2.92879932123355    3.38675102444370    5.75607447208852
H         3.23116061807408    3.75962958827381    4.80918661664555
P         1.76492300675373    2.55959554624802    2.04284429323084
C         3.35540315539658    1.70039407965047    1.53293125375307
H         3.56657624476142    0.93509054425170    2.30370269363497
H         3.17695814581662    1.17585365364284    0.58515006471080
O         4.42114359385539    2.56641805973550    1.36974075819434
H         4.41825865707742    3.15442491077021    2.17837406848098
C         2.51193466638807    4.20571068775960    2.63391745972077
H         2.76822033306142    4.77740509563144    1.71496038819677
H         1.68030230400210    4.74729624250567    3.14438214720630
O         3.57368118264107    3.96421742032132    3.41018692847611
C         1.04674285658084    3.04587808399655    0.39008559369248
H         1.75844201367953    3.68458534678832   -0.15320010451966
H         0.86089922050785    2.14318767765001   -0.20061295701055
O        -0.20046123855861    3.68659498052146    0.54829204882211
H        -0.07858374702179    4.50688843678317    1.06093788369427
P        -0.87010020538919    4.18668407833019    3.94377527570182
C         0.02260395358942    5.17558978902115    5.26816476659595
H         0.82464499641996    4.54547516294915    5.68076648922253
H         0.49007529928410    6.03311918837929    4.77419518065356
O        -0.82382637129268    5.68313064602759    6.26023398216080
H        -1.17376932498614    4.93802298320333    6.76654728528750
C        -1.62424303301275    5.59867409973678    2.98678047714591
H        -2.50377125116230    5.23734400350108    2.43720955003586
H        -1.91764303204782    6.40247576258941    3.67513193434065
O        -0.60681548113884    6.02778328669754    2.09961265376760
H        -0.89357740045795    6.82112470086091    1.63357240551397
C        -2.40107039354598    3.74151013660344    4.92797969286789
H        -2.88483954716934    4.65674790591216    5.28867727672152
H        -3.09213568991710    3.21513818945295    4.26106965667024
O        -2.05360723209387    2.97759153570391    6.06112572253386
H        -1.95315870270610    2.04646924557390    5.80617665646586
P        -1.52709654900553    0.55072401874423    3.22163912206725
C        -2.24206431775940    1.14278939716205    1.60557050593820
H        -1.54057157447691    0.87832127143275    0.80767128009333
H        -3.20508227922908    0.65000719503617    1.41739146665353
O        -2.45962085046347    2.52749479164271    1.68530058306106
H        -1.68475410615838    2.98087728138524    1.29531416030039
C        -3.08826080465698    0.18327620221996    4.17542076793943
H        -3.82804286031578    0.97738863035775    4.01197596289016
H        -3.51913150109417   -0.77950588830971    3.86756630803217
O        -2.64882951174204    0.15036580074485    5.52083399055379
H        -3.38497344976324   -0.05367134720208    6.10930715756018
C        -0.99942695066049   -1.17886778946478    2.75996428243363
H        -1.04042531763655   -1.82351425815617    3.64727693040971
H        -1.66606701665985   -1.57904043078262    1.98727398060376
O         0.28690183211766   -1.11640430293281    2.21697163158128
H         0.90646209817548   -0.97685086300991    2.95169743242481

