43
CSD_code = NENHUK | q = 1 | S = 0 | Stoichiometry = C15H19ClN3NiO4(1+) | MND = 6
Ni        6.40444801319867   16.85214362288218    7.79574602996600
Cl        5.83188287928689   18.54322611322630    6.54095159564664
N         7.26026401661307   15.05395411114450    6.48458271202891
N         7.03561236774858   15.00318648745505    9.13645766561385
N         6.01784235199847   17.26170166738803   10.11078906671589
O         7.94327771808569   12.93516823696240    6.37878367414158
O         6.27524718956433   16.60963012689764   12.22617854775910
O         7.67732820244168   17.43367792692646    7.88878914224804
O         5.09778320975241   16.37011133618156    7.63072956060856
C         7.38527260952622   14.81091136805791    5.05350889354057
H         8.12955566383909   15.50701421337038    4.65233498890553
C         7.87440854765393   13.33979192397187    5.00134953397499
H         7.17068287277001   12.67883492272244    4.48969512376772
H         8.86707266396171   13.22569530903500    4.56260237826537
C         7.56891927965492   13.97321675226390    7.10236908751637
C         7.50453946406845   13.89581215857163    8.56630172902620
C         7.88941054842790   12.78562990824862    9.31485912890027
H         8.26537819096499   11.90413226526939    8.82005628205238
C         7.77506649643681   12.85615338682228   10.69697897878617
H         8.06471106662671   12.01494353297419   11.30838673579958
C         7.28637838278723   14.01305994658793   11.28949556408767
H         7.18258923631704   14.10359128087922   12.35920085516282
C         6.92399719438585   15.07269072060179   10.46085130087550
C         6.38949763922885   16.35364111546053   10.93685029072445
C         5.74157058935449   17.93903566190734   12.34229501947865
H         6.45809734042852   18.54320098738609   12.90380577871615
H         4.80156838479599   17.88167072711685   12.89363999296036
C         5.57158258845922   18.41789175660023   10.87681042707940
H         4.52312775917938   18.61039878861088   10.62552904934503
C         6.04634217371185   15.05799432898121    4.35266736370844
H         5.32585748122941   14.30495103193103    4.67946116627377
H         5.67659971788807   16.03633625963576    4.67120555824602
C         6.18792548846489   15.03120871637032    2.83632647360499
H         6.87314046174778   15.80527101592868    2.50186291669013
H         5.22160374826028   15.20999980809227    2.37421972715694
H         6.55880492411963   14.06898654318932    2.49188841727968
C         6.40368759875795   19.65099382733188   10.51335557904941
H         6.42215822399063   19.73397516260552    9.42318690531651
H         7.43062537782571   19.50475834392478   10.85556351671007
C         5.82176779544137   20.92291133798109   11.11653834808366
H         4.81507453639056   21.09682530639701   10.74632614090260
H         6.43702370488805   21.77454577393791   10.84184179644384
H         5.78547629972417   20.86322618817215   12.20152695684066

