36
CSD_code = NENJIA | q = 0 | S = 0 | Stoichiometry = C12H17BrCl2N2OZn | MND = 4
Zn        1.53205809617805    2.86789270549341    9.04841572208221
Br        5.69217574704552    1.33480293819262   14.71773615578528
Cl        2.14142653405790    0.82066783073370    8.15703095201170
Cl        0.25069330585317    3.90518439182484    7.58203639437710
O         1.28056117673408    2.61358228251952   10.86197911748511
N         3.37569636836617    3.77729434171373    9.18171264231366
N         3.37757641566933    2.27043189016338    5.18842705038295
C         3.62621326812626    2.73922004714985   11.37057157018410
C         2.27123317509564    2.36016748256903   11.63338570702930
C         2.01122070909488    1.68034704826174   12.85625831854440
H         0.98679023673095    1.39920260331141   13.04697297733831
C         2.99668549988886    1.37642737802606   13.75056412841109
H         2.77004913600578    0.85018399782985   14.66571336509516
C         4.31316102955211    1.75408099151079   13.46994026301684
C         4.62034746374831    2.42249688400969   12.31850167827426
H         5.64279165849613    2.71119031316293   12.11841554085213
C         4.06098185302642    3.45759623160731   10.22215922072894
H         5.11117177294230    3.77668015931140   10.25944376698686
C         4.01063665770107    4.60859688339510    8.18381861227355
H         5.10591730998844    4.53890653861961    8.26553598533206
H         3.71965837079257    5.64635067963532    8.38262398293234
C         3.55168883964079    4.25724130694434    6.76605105563003
H         2.46580532421179    4.34539061286756    6.75907028664775
H         3.97757488919101    4.98169503622291    6.06816190328866
C         3.98072189368917    2.83699873649717    6.42494476899020
H         3.66954254823260    2.16939772467166    7.23500896212798
H         5.06745719914933    2.79004952557319    6.31444765828337
C         1.90366327351006    2.30675002538711    5.17515547542670
H         1.53655734962334    1.83012325662879    4.26960114797981
H         1.52011938720094    3.32087697912728    5.22747244883825
H         1.54407925846921    1.76106775111756    6.04850461741789
C         3.80961164667469    0.86810951276556    5.06669230024936
H         3.41178324582314    0.33005315317054    5.93101654853479
H         4.89524739340872    0.79736529962685    5.06285516873400
H         3.41873953853909    0.42737244277843    4.15238892143732
H         3.71646242753301    2.81130501756401    4.38558558497125

