44
CSD_code = NENLOJ | q = 0 | S = 0 | Stoichiometry = C17H21Cl2N3Ru | MND = 9
Ru        2.52897698884679    7.95310627959910    4.61912740070027
Cl        3.57890101804981    6.52756024734843    6.18629993899770
Cl        4.54953326484168    7.82861447603589    3.41699319248300
N         1.99049734620800    6.27357828687873    3.49551269254479
N         1.27616729705755    4.28209066356421    2.82366586893663
H         0.97701177236983    3.32315080740654    2.87092173259560
N         1.50031545905903    4.65699841670748    5.16384515553973
H         1.49470154027274    3.66239991965746    5.32584585955912
H         2.08256941450410    5.20649923152253    5.81846356114839
C         1.62628734658901    5.06084044816872    3.88587599548649
C         1.89147721910103    6.29371332587943    2.11741276177204
C         2.16464220256439    7.29835304996018    1.19991203841530
H         2.55616850400792    8.24822221374020    1.52677610970977
C         1.96114702535249    7.01433981835964   -0.13716698669615
H         2.17256572900469    7.77319928049881   -0.87505387394737
C         1.49840611870043    5.77105347598962   -0.56149175349475
H         1.35471450924151    5.59167555020688   -1.61604837840691
C         1.22934839569847    4.75674936317732    0.34051583178274
H         0.88104258245743    3.78849127794622    0.01546272227401
C         1.43419926125499    5.03693116890782    1.67786967865230
C         1.92190646281122   10.07856938714433    3.86760323133306
C         0.79036444510238    9.25098368626515    3.87944113225185
H         0.16024003571619    9.19551915587381    2.99759922842967
C         0.39912838721500    8.54883073773896    5.05484023298974
H        -0.51867212094212    7.97029764482544    5.04771914639521
C         1.12810967317345    8.68340922455304    6.24592001572758
C         2.29818268486804    9.50062096568589    6.22815832776538
H         2.85438289680957    9.63943141242364    7.15029739845656
C         2.69642485894686   10.16800524257187    5.06445584261255
H         3.55899018158816   10.82336408090481    5.09404152649273
C         2.21343659564164   10.95320173630398    2.67177660265384
H         1.73216587242629   10.50114316819901    1.79609418450511
C         3.70708151544883   11.10202383524164    2.38195472487153
H         4.18204681413225   11.76392037113613    3.10229064051820
H         3.84936411925071   11.52771746251098    1.39162880683312
H         4.20388333062155   10.13390123942164    2.42217483738383
C         1.56736638662880   12.32426673023072    2.91358511167223
H         0.49304497193762   12.22705065055510    3.05993344992240
H         1.74404507123049   12.97214634595661    2.05859025232505
H         1.99421643953453   12.79528556970441    3.79691665953714
C         0.70722712476790    8.01053042368918    7.51586102356359
H        -0.19314213949618    7.41957226542057    7.36494954983924
H         0.52117153124411    8.75186326117061    8.29306694885713
H         1.50456186618179    7.34987810094177    7.85966157695934

