35
CSD_code = NENMAU | q = 0 | S = 0 | Stoichiometry = C16H14O4Zn | MND = 4
Zn        3.53925420457013    1.10366733216317   10.06399310776053
C         4.79323372575065    0.84733310410194    8.44260657537602
H         5.82729828067660    1.15013292104150    8.62756222464776
H         4.83705197861664   -0.11553753306082    7.92903222172436
O         4.31476378911628    1.77256512856269    7.42923992049201
C         3.29779831194027    2.54647968637855    7.69198963660110
O         2.67011798265086    2.55521785951751    8.74600926741963
C         2.93039147128748    3.44425698449077    6.56837052704202
C         3.63973061440098    3.43626374879452    5.36975865142368
H         4.47748863241373    2.76686523018483    5.25363043582756
C         3.26424505237427    4.28250776693930    4.34335140683595
H         3.81340302567800    4.27648774258205    3.41353715382187
C         2.18534992325832    5.13785739509108    4.50453505880137
H         1.89592121550649    5.79712013851081    3.69939461555735
C         1.47800580136578    5.14920143607256    5.69647952960136
H         0.63810735649430    5.81647029070411    5.82009803475320
C         1.84752160521225    4.30601386859589    6.72691312263579
H         1.31135432902004    4.29718509583298    7.66347717434163
C         2.28538133665379    0.84723990558222   11.68544158114900
H         1.25130769572256    1.14996842588012   11.50042152018015
H         2.24159485390266   -0.11561227203007   12.19905897560110
O         2.76362361185276    1.77273569976920   12.69867549711257
C         3.78034078376963    2.54691932842878   12.43577013584164
O         4.40841463523002    2.55520790975402   11.38197758997266
C         4.14824006881250    3.44414280240192   13.55967404023704
C         3.43887156411248    3.43618578840966   14.75826975582406
H         2.60104947438181    2.76685897751097   14.87436010433226
C         3.81427069332824    4.28253530352302   15.78462294269155
H         3.26514012725062    4.27648731461679   16.71445327328849
C         4.89314860568954    5.13790503228451   15.62342523516673
H         5.18265042672550    5.79708399548456   16.42860790762636
C         5.60055658053335    5.14917220648481   14.43151634356026
H         6.44040831373899    5.81649416821443   14.30786737020854
C         5.23118385286127    4.30581251741908   13.40117047040634
H         5.76718007510056    4.29717469976104   12.46450859213957

