73
CSD_code = NENMIE | q = 0 | S = 0 | Stoichiometry = C28H36N2NiO6 | MND = 6
Ni        0.00002535004522   -0.00000263402616   -0.00000487446497
O         3.17401897284244    3.26287990377181   -2.69768242829388
O         1.06530480525553   -1.48468639224784   -0.44252482068742
O        -1.26068646995747   -0.44703336632498   -1.35479323044377
N         1.31959075108918    1.35915097432221   -1.61128343997665
C         1.86065728611996   -3.47355953583120   -1.37421481691951
C        -1.28894003126348   -1.48541521996068   -2.05789177907267
C         0.83216320395421   -2.39852861685505   -1.28043943716015
C        -2.49178349991685   -1.67085411788606   -2.96385366806998
H        -3.02354886494038   -2.57963023478178   -2.68946870753691
H        -2.17245735797204   -1.76311133779549   -3.99970480082391
H        -3.15801066387250   -0.81843549684302   -2.86298452230814
C        -0.30616007129437   -2.48051464318380   -2.08877341578703
H        -0.45006901273563   -3.33244842155564   -2.73139535403460
C         2.09514527098003   -4.19402074046637   -2.54152838289009
H         1.53407347879489   -3.97436332807607   -3.43716108603996
C         3.52100233859586    1.89642637716345   -2.59215606507611
H         4.59892840558005    1.87287076818447   -2.42379071077080
H         3.29571253751519    1.38341796348385   -3.54293596731502
C         2.63352307532633   -3.74309623347887   -0.24669426831193
H         2.45990332651835   -3.16028673492164    0.64527573660871
C         0.98563525416205    2.77471654934744   -1.74769322850711
H         1.22841995385556    3.27091036149401   -0.80378958091125
H        -0.08495264965607    2.87358828192150   -1.93140886150985
C         2.76528641628347    1.21653497074504   -1.44575479823453
H         3.01551265501584    0.15614619395045   -1.39367662292472
H         3.04031816002776    1.68827806163610   -0.49926453871770
C         3.06781333091112   -5.17722907589560   -2.56935235541785
H         3.24576195333651   -5.72939263806973   -3.48086420273490
C         3.81618775475777   -5.45348964312304   -1.43708940797249
H         4.57160949895636   -6.22512571947962   -1.46323776468502
C         1.78306897082128    3.42389398107735   -2.88498073943683
H         1.48578238458240    2.97589796881718   -3.84876490306681
H         1.60769359425902    4.50036062343136   -2.92493445466255
C         3.59953023496284   -4.73020960353929   -0.27549051587790
H         4.18791132100280   -4.93561260083848    0.60692021059789
H         1.04832857842656    0.88458131799140   -2.47520699453523
O        -3.17390280676929   -3.26298934094491    2.69761728945525
O        -1.06532198922067    1.48470241352088    0.44256635223066
O         1.26073562102704    0.44708127341951    1.35476766617084
N        -1.31968054786175   -1.35905876926684    1.61127067215422
C        -1.86054347429150    3.47367277191091    1.37417512153494
C         1.28913690938358    1.48558552855571    2.05771826232644
C        -0.83226529533672    2.39842250794779    1.28062493469212
C         2.49150923723108    1.67054913961077    2.96427600547035
H         3.01998912380795    2.58277078345375    2.69480699196868
H         2.17208121727130    1.75593934469259    4.00082062247600
H         3.16069132648615    0.82088096123701    2.85875602111532
C         0.30621745896098    2.48054880350684    2.08872950664958
H         0.45017209679634    3.33252295699376    2.73129585049508
C        -2.09509497093085    4.19416615113546    2.54144030145119
H        -1.53419295436595    3.97442916535970    3.43714608416960
C        -3.52120957292400   -1.89664533006898    2.59168430442607
H        -4.59909810401128   -1.87341257071480    2.42303543435395
H        -3.29629876671561   -1.38335670890279    3.54240181270998
C        -2.63332063722130    3.74318872718048    0.24657769703937
H        -2.45973712706146    3.16022497172245   -0.64530347029974
C        -0.98539452249730   -2.77450661384261    1.74808413688376
H        -1.22780867245237   -3.27098242260602    0.80423384169079
H         0.08517485323483   -2.87305153827584    1.93208535419698
C        -2.76536576234916   -1.21683168086953    1.44532699543345
H        -3.01582439727229   -0.15651425998247    1.39292376738028
H        -3.04004068965183   -1.68885869293898    0.49887680311688
C        -3.06777836183644    5.17736562751844    2.56916292971985
H        -3.24578706472760    5.72956237697535    3.48064632433630
C        -3.81603581539138    5.45364048871981    1.43682328795900
H        -4.57129571060529    6.22543493635902    1.46283852978601
C        -1.78295874238642   -3.42361159636031    2.88531950058144
H        -1.48603603375041   -2.97529870922434    3.84906844926868
H        -1.60733306794794   -4.50002395674654    2.92558840065525
C        -3.59932537410315    4.73031375490793    0.27526239648617
H        -4.18757642348935    4.93577077474184   -0.60722297689618
H        -1.04878120139797   -0.88423923088453    2.47516959677930

