54
CSD_code = NENQAB | q = 1 | S = 0 | Stoichiometry = C25H26IrN2(1+) | MND = 8
C        -0.41423426214851   -0.21856397158744   15.23633537270188
C        -1.40481824165722    0.68721289157123   15.53782995267751
H        -1.81877694096284    1.32896708518762   14.77511096677285
C        -1.89783101449713    0.79894255153563   16.84524861044978
H        -2.68308303257355    1.51262664417157   17.04506312446266
C        -1.40560117643469    0.02387161637291   17.86784243720166
H        -1.79935088286590    0.12084711626691   18.86796751740459
C        -0.37640857444658   -0.89390195674730   17.61537309654183
C         0.21643300163529   -1.72322166726944   18.61361313616910
H        -0.16111572720963   -1.64981249977112   19.62261186471241
C         1.22760111222042   -2.58035969482424   18.32408405889480
H         1.66619665974905   -3.19747411976151   19.09325686793045
C         1.74640376113979   -2.68963643465777   17.00062088916527
C         2.79836059551563   -3.53489713302340   16.62210391283044
H         3.27067334592021   -4.17126059192328   17.35490571027745
C         3.21795589544837   -3.53406406697781   15.30916643868384
H         4.02891187781867   -4.16633635566560   14.98551409260683
C         2.58678041643191   -2.70661217392116   14.38237760275643
H         2.91488927007325   -2.69342954020268   13.35295948794808
C         1.16481300790039   -1.89061882107149   15.99417855886245
C         0.10349281175000   -0.99500457657921   16.29307600939819
C        -1.58551778996035   -1.03953758399962   12.42403431215160
C        -0.80368610125501   -0.11504250801450   11.65914681696898
C         0.30863510141784   -0.85299685368868   11.07056068844158
C         0.27928900347796   -2.15330883353090   11.57384549243575
C        -0.84119777900656   -2.25501053699582   12.50097318221794
C        -2.97169376485402   -0.82920158010130   12.93581022477123
H        -3.22000879047512    0.22642752104506   12.98842855179653
H        -3.10747894767837   -1.26786860420638   13.92146997096870
H        -3.67424848333367   -1.30835167965710   12.25254593278425
C        -1.26143791184585    1.22722737780853   11.18430844306414
H        -1.87731090152298    1.72243897823062   11.93058530038809
H        -1.85640732012693    1.10823541146620   10.27761068039397
H        -0.41830351291893    1.87305338316752   10.95071923890331
C         1.21315982747664   -0.32207501408054   10.00873800443524
H         2.15148898294483   -0.87087014659753    9.97477099089895
H         1.43311307190360    0.73198863331968   10.16482491479077
H         0.72977256980072   -0.42174562278721    9.03579772683550
C         1.13791442830012   -3.29657196649538   11.14974020828032
H         0.67640303401319   -3.79560455610866   10.29608179783026
H         1.24320515416104   -4.03224235241917   11.94434454192182
H         2.12735673958358   -2.96336429198465   10.84176470698815
C        -1.35396912233211   -3.53960957338782   13.07246086592874
H        -1.99781647666561   -3.35413869405613   13.92893092917830
H        -0.54041666228556   -4.18962811182057   13.38833694198013
H        -1.93574748251059   -4.07079295073297   12.31777109308716
C         2.29185261036660    1.71055942970786   13.75682776915664
C         3.13391964555904    2.85156788359337   13.88976075868828
H         2.73793107572154    3.50930564732570   14.66394808601419
H         3.17391778866698    3.39580383594815   12.94606601048289
H         4.14197105561244    2.54138342954180   14.16543908126574
N         1.58095945051191   -1.91227278299447   14.70836932024677
N         1.60586348850519    0.78759134406724   13.66223860614449
Ir        0.40099611593934   -0.70822293268655   13.41000910210628

