53
CSD_code = NENSUU | q = 0 | S = 0 | Stoichiometry = C14H28N6NiO2S2 | MND = 6
Ni        1.60343346289948    4.46687482337914    7.27606298083102
S         3.54419762145058    3.40720180562691    3.45151459105708
O         4.62485323058512    8.62703186914440    8.13256489205551
N         2.76954369088280    3.80928212560447    6.07115629939467
N         2.51608614492219    3.29875077392684    8.75411980342642
N         3.38706044819550    5.99229702982502    8.11203269890425
C         3.06309874657057    3.66413749327823    4.93875573889904
C         3.34366389414787    4.07862291861574    9.67448159885837
C         4.21405116545254    5.06498716056921    8.88929710766666
C         2.88112940096236    7.11126853420742    8.91972702474401
C         3.96337339715921    8.13743113526682    9.27941836311303
C         5.18773405596895    7.56734370754179    7.38957961188834
C         4.11006509509742    6.56263540388733    6.96893915783197
H         3.09857655165438    2.62673372782115    8.25464436245990
H         1.80669603449415    2.78713773498353    9.27396113356665
H         2.68392346009568    4.62059630497103   10.35494138635566
H         3.99809332683253    3.42897791372453   10.27148808959587
H         4.82787490954770    4.49636108297151    8.18563842343460
H         4.87890080535538    5.57576299815352    9.59650158361966
H         2.42082626085341    6.73303172530392    9.83143013422939
H         2.10744157760410    7.61262209430081    8.33300236042691
H         4.69921986011891    7.70359737738693    9.97434495270066
H         3.50708128422960    9.00457141388349    9.75939337666352
H         5.97412229338680    7.06951259552875    7.97761245792148
H         5.64405545678453    8.02351701787315    6.50951091970928
H         3.37983647019840    7.09272412188700    6.35122664958892
H         4.54985552829952    5.75997348242763    6.37629458686718
N         0.43747459300193    5.12439271165668    8.48093977238605
C         0.14368062583294    5.26902019614932    9.61335661434814
S        -0.33785435423551    5.52585437556011   11.10050897060193
N         0.69078041119181    5.63505584078434    5.79797087715192
C        -0.13667139025087    4.85514295256741    4.87743816413439
C        -1.00727455866264    3.86890061514714    5.66250993242038
N        -0.18046990976490    2.94168025108333    6.44004395695256
C         0.32562819774873    1.82255985127504    5.63269501462494
C        -0.75657076551813    0.79637974488092    5.27294464395286
O        -1.41838854635720    0.30704207859598    6.41971937724613
C        -1.98132699992669    1.36690767168263    7.16242546439973
C        -0.90366937931728    2.37158360473017    7.58312318924719
H        -0.17355884711121    1.84153415194431    8.20101244007483
H        -1.34348167569945    3.17436019143657    8.17560545745245
H        -2.76755433013834    1.86471640540156    6.57415682848643
H        -2.43786241150111    0.91089972575758    8.04246485421420
H        -1.49219603390629    1.23007042520231    4.57769703689388
H        -0.30016926997548   -0.07089148766920    4.79331838890065
H         0.78620076209410    2.20057592255595    4.72103588543023
H         1.09913299363803    1.32129816821808    6.21974174902092
H        -1.62123421735299    4.43762289899586    6.36598071500566
H        -1.67201975184868    3.35807461687202    4.95522621186716
H         0.52319658863214    4.31308324787840    4.19717560227329
H        -0.79088869337360    5.50482681604832    4.28025691359810
H         0.10809718240170    6.30702528922738    6.29730321855055
H         1.40000560664954    6.14689936192504    5.27810843495691

