34
CSD_code = NENSAA | q = 0 | S = 0 | Stoichiometry = C13H11BrNO7Re | MND = 6
Re        2.63079515094018    3.67426822632652    1.94069783720467
Br        2.52851353092499    2.75041698604715    4.32649019050578
O         3.41863927081622    6.70344331290391    1.64898352189797
O         4.24598299705257    7.87930939552266    3.37009831293144
O         4.05930800260086    1.99430688834748    1.73701554347596
O         5.73368286142211    1.07123215104117    2.90957536165027
O         0.78025176499994    5.99726135678834    2.78324753068351
O         0.27841931084967    1.86700808497934    1.09115988763875
O         3.17028840563944    4.75256422033966   -0.89702762860590
N         4.59325530547887    4.42243629172505    2.73928949589422
C         1.45094086171858    5.14676091746624    2.41022385381667
C         1.11456433391333    2.59229878189561    1.37515907769671
C         2.95058867279560    4.35931727569242    0.15048455838490
C         5.36257615822921    3.39080762805431    3.12606311408443
C         6.47393363209407    3.53725006774914    3.95018176073523
H         7.04185386271635    2.66396500608907    4.22523682177303
C         6.79338489104504    4.80187179072360    4.40945909421076
H         7.63014440741841    4.95189713194004    5.07337347052706
C         6.01902180901380    5.87445407217010    3.99305762713200
H         6.23136984056522    6.88179764741264    4.31047455481484
C         4.93523772180077    5.64401197694827    3.15074398971209
C         4.11242415440485    6.78091837500246    2.63408459461325
C         3.46485820878285    8.99582912366342    2.95450581003427
H         3.78373410060081    9.33153228609643    1.96647703868136
H         3.62858200029739    9.77134699660123    3.69729909223884
H         2.41070175614634    8.71817384543386    2.90826795807379
C         4.97175188641494    2.08664580542338    2.54880824383476
C         5.37281960866241   -0.21801661490006    2.39716746355904
H         4.28658396933113   -0.33480500372124    2.46766613889802
H         5.86387140544475   -0.92347573453537    3.06949562119258
C         5.83813510734901   -0.40720131517701    0.96160650820997
H         5.61548817007369   -1.42171923338945    0.64455827102050
H         6.91039642648753   -0.24019877577068    0.88644063022995
H         5.32340041397122    0.28449103511073    0.29863465325007

