62
CSD_code = NENSIJ | q = 0 | S = 0 | Stoichiometry = C24H31N3O2STi | MND = 8
Ti       11.04247149917767    1.44915844234154    1.85814937368019
S        11.95498366336015    2.38310064414729   -0.79380554838062
O        12.01300892339842    0.94968546334262   -0.61754232719250
O        11.12412477221232    2.86764572032903   -1.86810925143228
N        11.52766668180348    2.94158134840266    0.65559272296810
N        12.43107627709987    0.24836726475259    2.07280572526564
N         9.70590823762043    0.46731813880410    1.08976857505011
C        10.59200050745200    4.60776018522486    2.06294442687858
C        11.19232510453697    4.27376093845606    0.83011329483569
C        11.41702856618234    5.28046286634413   -0.10660127828743
H        11.87008836271323    5.03855258042560   -1.05516335064332
C        11.03005681384827    6.58058640717963    0.17596260906429
H        11.20254494997821    7.35180122043490   -0.56082303212391
C        10.43002238370674    6.90166589291028    1.38086620698259
H        10.13139414585109    7.91892205085456    1.58542095331494
C        10.21644269867934    5.90996258372291    2.32806215925651
H         9.75469717709523    6.14694984879785    3.27639082761624
C        10.46900132898242    3.46230686752297    2.98449832654084
C        11.56754715229262    2.93794112287947    3.71253253595336
C        11.15623057781402    1.71597378709336    4.27453588378650
H        11.70812871250430    1.12536327340686    4.99629969103736
C         9.81359029155437    1.47678102317121    3.88129279020252
H         9.17546645201020    0.69644443717417    4.27978515009033
C         9.38254677955884    2.56723777555771    3.08922032361302
C        12.83932185527690    3.69983823199322    3.96803886271947
H        13.47215096330085    3.17630569082776    4.68436581599570
H        12.60022522424084    4.68063418943176    4.38492366564539
H        13.40287773500678    3.87056685229537    3.04644526940945
C         7.99231148444375    2.83006595704118    2.58745507851168
H         7.47034012097173    3.50446685485319    3.27189388056007
H         7.41953611953486    1.90579482601068    2.52525193468016
H         8.01574640469265    3.30647335192378    1.60624697099607
C        13.63357751487791    2.95776210416336   -1.05103623458725
C        14.03638897240378    3.53961692081280   -2.23730310275252
H        13.31917553137221    3.64101346230783   -3.03702918810815
C        15.34279084120664    3.97661145906946   -2.36738935152788
H        15.66823601008279    4.43285535564745   -3.29096588622365
C        16.24763516656155    3.83651144395136   -1.31875471162180
C        15.82022595306294    3.24644132957361   -0.13360828367992
H        16.51535513471843    3.13205837245882    0.68580947364356
C        14.51466608243127    2.80758021144097    0.00208953019395
H        14.15318209482458    2.34169559576950    0.90956014492201
C        17.65379192148887    4.32981804090874   -1.47156547616984
H        18.08608983169530    3.96944174838300   -2.40293043070755
H        18.27636559440099    4.00044025991891   -0.64410569974333
H        17.66628640694287    5.41908490363946   -1.49975072489508
C        13.64175311311087    0.39740346831786    2.84682417410974
H        13.66942618397567   -0.32921820276956    3.68061814077062
H        13.73202453583829    1.40163777859758    3.25911830380921
H        14.53018213469881    0.19894994547227    2.22319671022752
C        12.42563871872522   -1.06626110166711    1.46772135945150
H        13.37330073857360   -1.24948262245976    0.93876975098076
H        11.62290844877423   -1.14232432953502    0.73710003241500
H        12.31488086097814   -1.85290270523117    2.23650517378862
C         9.13199276926791   -0.74109180204966    1.62660976598565
H         8.07642751688882   -0.58582660760099    1.91777781694266
H         9.69855317482537   -1.07037461829322    2.50375087641146
H         9.14180836356102   -1.55201829495178    0.88045211844037
C         9.01792660949699    0.88535073152419   -0.10431425840407
H         9.17592000496776    0.16665999526249   -0.92435679849385
H         9.38511645253337    1.85765320408959   -0.44331447202332
H         7.92991135081276    0.95673811561439    0.07130298027211

