49
CSD_code = NENSUV | q = 0 | S = 0 | Stoichiometry = C21H21Cl2NO2STi | MND = 9
Ti        8.37781580980179    5.08526327802318   14.87864051557102
S         7.39672652721996    3.23163854268244   13.04521072807517
O         7.13014359106413    3.18086798194230   14.47611524638475
O         7.88384362709693    2.04849765087341   12.40578618920931
N         8.40264361487510    4.49318006590465   13.04502732419563
Cl        9.46018905695915    3.59071058452453   16.03664506406454
Cl        6.57182840897715    5.39896049865633   16.10064356567045
C         9.54378182640452    6.69011887586861   13.59693882215705
C        10.42152319209766    6.19375583734940   14.59508703213450
C         9.90574811572333    6.58997118147013   15.86337348089048
C         8.70307324294960    7.29802360605432   15.63471511830474
H         8.11678383778788    7.80664721288839   16.39048318047571
C         8.44367570625703    7.32032952273474   14.24179738294954
C        11.71808620774529    5.48522924800432   14.35357121753606
H        11.78431427317418    5.16019906076323   13.31574875717737
H        11.79884630344269    4.61572182293550   15.00734667830055
H        12.55781293215884    6.15031654270420   14.56507844023930
C        10.58644674023466    6.42214066946237   17.18561359400384
H         9.89673312966623    6.65494544385770   17.99559976020181
H        11.44536929351089    7.09286237495616   17.25105161262356
H        10.93908995855091    5.39778868841305   17.30613090236315
C         7.30957224187180    8.03307557010763   13.56749840304565
H         6.41057885324091    7.97224437303889   14.18227536745663
H         7.11244477141125    7.60320270757896   12.58391503042209
H         7.55631396992102    9.08853024770384   13.43073620591201
C         9.57672235632461    6.32181343862491   12.16601630066301
C         8.92192169944937    5.09983273120536   11.91676314496417
C         8.83115772187500    4.60655539868461   10.62001952040019
H         8.34159887506285    3.66128861112648   10.44123431439473
C         9.40077460470239    5.33343453598250    9.58642920745258
H         9.33775823388830    4.95313650686616    8.57781412473650
C        10.04830655960111    6.53347376808379    9.82948618903388
H        10.48659633189912    7.08411025684661    9.01144122748066
C        10.13816108691652    7.03132878093147   11.12288762095893
H        10.64109610352289    7.96638225413431   11.31974373680474
C         5.92510012436968    3.81361396294725   12.22354487820601
C         5.40493941381193    3.14752910741146   11.13092644979908
H         5.88303199872939    2.24003300379502   10.79667184347247
C         4.28265200832787    3.65707222607910   10.50130574125965
H         3.86648124545553    3.14101688729786    9.64887010751741
C         3.68264528136351    4.82765536923604   10.95570929680192
C         4.22697990393435    5.48169499507774   12.05840983351682
H         3.76583807274974    6.38771842111729   12.42255678664949
C         5.34820797493407    4.97969919198877   12.69442245285386
H         5.77250394527351    5.46999295820846   13.56581748684261
C         2.45356900914344    5.35952795723814   10.28823150043836
H         1.56808999795685    4.92077034453832   10.74848265855196
H         2.44293157128571    5.10487721895649    9.23156904422248
H         2.38755064728714    6.43902048513366   10.39621691363339

