73
CSD_code = NENTAD | q = 0 | S = 0 | Stoichiometry = C38H30N2NiP2 | MND = 4
Ni        7.73715303951923    5.16166634662819   -0.00019553032688
P         6.44850551847000    5.69686836494840    1.65465194813466
N         7.44655471071567    2.28546185287845    0.75460746465006
C         7.63737297759537    6.04166139565238    2.98189576134941
C         8.95074731023022    5.63569177669131    2.76810763806707
H         9.20704728855521    5.13137287847694    1.82989667978382
C         9.91874101077880    5.86580688500528    3.72719389927956
H        10.93763878978708    5.54980007159277    3.55782618093057
C         9.57563847727216    6.50714632047533    4.90639525814626
H        10.32841604389320    6.68992854479627    5.65893979640568
C         8.27082841466017    6.92406792764473    5.12030401380716
H         8.01063462255403    7.43166564136899    6.03778948639751
C         7.30009712689173    6.69761536309588    4.16168571821144
H         6.28541686967478    7.03859532861509    4.31789771509448
C         5.38417985160479    7.17416610276327    1.68840780303196
C         5.99478925387744    8.42584639446411    1.72027017139609
H         7.07331528642643    8.49544372061550    1.73595810063340
C         5.22456951809342    9.57234458776370    1.72095735765300
H         5.70427978713713   10.53935979149904    1.74611255767018
C         3.84204240218992    9.48192916916487    1.68264313201592
H         3.24085801839417   10.37921856409916    1.68094913115670
C         3.23190043433379    8.23983336360699    1.64190221228778
H         2.15447167793492    8.16590143145925    1.60896269727394
C         3.99740629029053    7.08692098806434    1.64121027552628
H         3.51520412702041    6.11965849792050    1.61003339258924
C         5.33703880818453    4.41421867081945    2.31285621260424
C         5.27359263376280    4.06080892268346    3.65287356146700
H         5.91306648832296    4.54708716925090    4.37535747250083
C         4.39989011982874    3.06692940720319    4.05947131822467
H         4.35644651082087    2.78815633817497    5.10234374428546
C         3.59066688983162    2.42582221257670    3.13736020581690
H         2.91458061976181    1.64831697458956    3.46116389241440
C         3.65847328641114    2.76987634128184    1.79653465147479
H         3.03854189359397    2.26078164461161    1.07323901632561
C         4.53304623055317    3.75595547523861    1.38547388058811
H         4.61506794174641    4.01476131824885    0.33560506187977
C         7.55481849662839    3.39125222656660    0.45003321465455
P         9.02584156084115    4.62620582181565   -1.65476776695518
N         8.02747831044716    8.03791514827063   -0.75533758665980
C         7.83692843472715    4.28117746660898   -2.98191410457788
C         6.52357114225859    4.68717468298040   -2.76809221425309
H         6.26729165848247    5.19135871494209   -1.82982638876640
C         5.55542168432720    4.45667184660545   -3.72696606358334
H         4.53648582561100    4.77244661221373   -3.55742917243102
C         5.89838355872150    3.81496614081573   -4.90603243067618
H         5.14552932318745    3.63204570337391   -5.65848316189785
C         7.20321195250359    3.39815688552250   -5.12002865424149
H         7.46335972880732    2.89056603944826   -6.03753304346124
C         8.17405959317847    3.62493093551653   -4.16159454462104
H         9.18875973097568    3.28406779676814   -4.31792761622115
C        10.09001525182985    3.14879632432925   -1.68825165953015
C         9.47933424634737    1.89715948019522   -1.72027780044997
H         8.40081184160336    1.82761094596677   -1.73631218632117
C        10.24947388743419    0.75060618582594   -1.72050888958550
H         9.76969956034655   -0.21637196880810   -1.74591606895724
C        11.63198940820545    0.84093055441632   -1.68158162913720
H        12.23311520954871   -0.05639439938945   -1.67983270531139
C        12.24219380038956    2.08299055898674   -1.64067230474816
H        13.31961871298198    2.15685086028690   -1.60742961301254
C        11.47676931488799    3.23595474671889   -1.64046760610261
H        11.95903192262029    4.20318082652699   -1.60904453252693
C        10.13752473175584    5.90853136803021   -2.31324342542547
C        10.20147386548633    6.26115083910301   -3.65344720268798
H         9.56217783551659    5.77455912333093   -4.37587793625005
C        11.07537821999649    7.25473788617718   -4.06032034721496
H        11.11921382865016    7.53289714177782   -5.10334192188740
C        11.88430005170793    7.89634381158725   -3.13829050385515
H        12.56060602041673    8.67356612615229   -3.46231717121913
C        11.81596845209948    7.55309019019679   -1.79728526027849
H        12.43573781874119    8.06250797586697   -1.07407069300311
C        10.94119306556982    6.56730316580906   -1.38595576494739
H        10.85881700472908    6.30909573911594   -0.33596517362954
C         7.91919467772150    6.93218071237314   -0.45037194897452

