45
CSD_code = NENVIL | q = 0 | S = 0 | Stoichiometry = C12H24N4NiO4 | MND = 4
Ni       -0.85104561754621    4.92649318600585    5.72862327613297
N        -0.92418280473707    4.12405151027772    7.36472860441460
O        -1.45805052313447    4.53519833306705    8.39952787780097
N         0.35763052904508    3.63192431942646    5.30664525780033
O         0.78162884342014    3.31065561831809    4.19304378206526
C        -0.28046472655169    2.78353083947291    7.45422792871871
C        -1.33149055968539    1.76816966848489    6.97962777823573
H        -2.23671928649570    1.88724452674382    7.57268768296238
H        -1.58203785857581    1.93416438491432    5.93125188565734
H        -0.96691603510113    0.75293384258969    7.10802502901876
C         0.11759147640812    2.47679224437324    8.89462203918364
H        -0.77731544180822    2.34463678659789    9.49773808195285
H         0.70570786483444    1.56430945182842    8.93593981204828
H         0.68840575728615    3.29474652479794    9.32479654155521
C         0.90730429384696    2.86809866426100    6.46087293900411
C         2.05102193291455    3.72026708921720    7.03248358421894
H         2.76876023561086    3.93344083796896    6.24212654345843
H         1.66973787718173    4.66748223681162    7.41658825115723
H         2.56378372535241    3.18698229222148    7.82802362818451
C         1.44907778157701    1.51788616728059    6.00331397460549
H         2.33262008700129    1.67115802131887    5.38845280484220
H         1.72115850000273    0.91095727174089    6.86210162539813
H         0.71640130735193    0.98630344811063    5.40224299377240
N        -0.77791901766461    5.72893489987119    4.09251920041202
O        -0.24401725888117    5.31782446684001    3.05773426233984
C        -1.42162057973264    7.06946307932778    4.00303263665621
C        -0.37059270453733    8.08482103979433    4.47764302827477
H         0.53463477702059    7.96575075091691    3.88458081538361
H        -0.12004089824054    7.91881737694433    5.52601771042951
H        -0.73516463180160    9.10005928990902    4.34925451105419
C        -1.81967070083457    7.37622031729054    2.56264091657910
H        -0.92476116444590    7.50837170187921    1.95952966556623
H        -2.40777992127993    8.28870884294030    2.52132504470650
H        -2.39049145552244    6.55827436928331    2.13245986381331
C        -2.60938848832766    6.98489229882347    4.99638560337545
N        -2.05972468897520    6.22105145369200    6.15061985438238
O        -2.48365096234680    6.54237877783169    7.26425247140982
C        -3.75311422094679    6.13273290689842    4.42478288885871
H        -4.47084526028631    5.91955767860526    5.21514553217080
H        -3.37183318054423    5.18551945159090    4.04067014541464
H        -4.26587778802882    6.66602244020295    3.62924785669159
C        -3.15115100897373    8.33510664877661    5.45395455198858
H        -4.03469285814238    8.18183894940266    6.06881874873940
H        -3.42323448914092    8.94203904032439    4.59516996256227
H        -2.41847085656478    8.86668695302512    6.05502280700255

