107
CSD_code = NENVIO | q = 0 | S = 0 | Stoichiometry = C50H52Br2N2Ni | MND = 4
Br        4.38281275507193    9.35071183601387    1.04535841404150
Ni        5.60454611756433    7.81213752665410   -0.00042159373982
N         6.87608634293733    6.34272483971304   -0.22389513460581
C         6.39747477068698    6.19935411040421    3.52949001742041
H         5.76333999909853    7.07265812889556    3.45618511296185
C         5.99433489672295    5.11431679960853    4.28784702881743
H         5.04602114232164    5.13598323325709    4.80410232520148
C         6.80493283224875    3.99588708425728    4.38626189138150
H         6.48499820685143    3.14613239631312    4.97129068041944
C         8.02822646751407    3.97688530883393    3.73787588910572
H         8.67075687858579    3.11148066784160    3.81724509046262
C         8.43613978650575    5.06771412628356    2.98913394016972
H         9.39462890627105    5.04872653059088    2.48975173447056
C         7.61932858541553    6.18497368132896    2.86806748748895
C         8.06350698411595    7.39678677302127    2.08142945749830
H         7.15105198172407    7.90814927696931    1.69881000114231
C         8.74458391969230    8.38614592277148    3.03053815653186
H         9.55283758512262    7.90835563038519    3.58039080708479
H         8.01769255573986    8.75123503438965    3.75287421183403
H         9.13464027449762    9.23497041419259    2.47410102746223
C         8.90822834887992    7.01087805211432    0.88993555664835
C        10.28568870484898    7.13704618987576    0.89225156533065
H        10.78580140911480    7.51294555740993    1.77019007017634
C        11.04678917432036    6.78979564175951   -0.21470885403021
C        10.39542697780303    6.36010678986057   -1.35803108767044
H        10.98008088011639    6.12299000462556   -2.23203059549138
C         9.01661250231255    6.22642035528224   -1.41280956211333
C         8.27750502129299    6.50408043220443   -0.25782742208515
C        12.53710086400740    6.93378662394214   -0.18799539461208
H        13.00493312441195    6.27488512995086   -0.91572096137454
H        12.93211417883911    6.70800353596274    0.80016861805635
H        12.81260345912307    7.95998552041536   -0.43251127146874
C         8.33584367770290    5.90138263525862   -2.72753928688339
H         7.26725305680565    5.76291090039048   -2.53508195357696
C         8.49039284140591    7.10344962682766   -3.66913297709032
H         7.99028530495087    7.97149047501524   -3.24755683693232
H         8.05357460566814    6.87829078463954   -4.63987664918602
H         9.53471421080624    7.36540953826052   -3.80847165080761
C         8.84574650350156    4.62315369991007   -3.35247315723093
C         8.10402539963775    3.45532325371295   -3.21398131025134
H         7.15948521131522    3.48711670945111   -2.68942004569945
C         8.53315723268384    2.26120490828624   -3.76376584373296
H         7.93642338362892    1.36831034269577   -3.64308215488417
C         9.71902931528774    2.21312672972508   -4.47477535913018
H        10.05939354205660    1.28331306894832   -4.90558721328906
C        10.45447272509652    3.37268202410880   -4.64477557454831
H        11.37070972038488    3.35166127463603   -5.21684754579385
C        10.01986190708410    4.56561967402487   -4.09445594900865
H        10.59889065333199    5.45858590118560   -4.27153186136103
C         6.33254349283620    5.18996784196579   -0.03634866914403
C         7.08732233870326    3.91540678536011    0.14724669446230
H         6.96616686826702    3.57249019403677    1.17646206424211
H         8.14753003938214    4.06022809832675   -0.04787465972167
H         6.70584690527425    3.14066588629861   -0.51446879003029
N         4.33204012001319    6.34312685559888    0.22382781519398
C         4.81044103645701    6.19965940734497   -3.52959336047427
H         5.44451198128357    7.07298911296707   -3.45618392902697
C         5.21362377046740    5.11476908273751   -4.28812228211272
H         6.16193197049376    5.13656256662901   -4.80437844297229
C         4.40313472410826    3.99627368612543   -4.38662830583135
H         4.72314121556584    3.14661536564223   -4.97174865673530
C         3.17989568387617    3.97705497183049   -3.73816995644838
H         2.53743455336832    3.11160643000613   -3.81763197217480
C         2.77193765601846    5.06774469494961   -2.98925845293425
H         1.81340189180916    5.04868329053638   -2.48994422237417
C         3.58865016363549    6.18506766564427   -2.86808861262515
C         3.14429396763387    7.39683887129273   -2.08147282570932
H         4.05662350883508    7.90837905206570   -1.69883925663150
C         2.46298390460631    8.38603113796043   -3.03059690388486
H         1.65482845267287    7.90807057783575   -3.58043436859456
H         3.18982633202778    8.75119037208607   -3.75293438584658
H         2.07276484647089    9.23482867576536   -2.47423147082909
C         2.29969695156042    7.01106186914721   -0.88990340063459
C         0.92217013120743    7.13694549616330   -0.89219358236021
H         0.42198220296789    7.51279755660202   -1.77011367793225
C         0.16110281517852    6.78950608191958    0.21475732811848
C         0.81254334681519    6.35995436732607    1.35807737802506
H         0.22789086735788    6.12271477340651    2.23207356194231
C         2.19142573492110    6.22658042164611    1.41284233155688
C         2.93060724409067    6.50463931136893    0.25788722123103
C        -1.32923757081391    6.93331088433707    0.18805231512218
H        -1.79696419877466    6.27439767566227    0.91583327425580
H        -1.72418474751502    6.70734201873719   -0.80009379080025
H        -1.60498233248603    7.95948170808189    0.43244520806183
C         2.87217163311174    5.90117194437062    2.72751677518024
H         3.94071775039559    5.76240620357567    2.53499088551863
C         2.71800611469300    7.10342698046010    3.66891665130354
H         3.21856089845105    7.97126781769233    3.24737574905336
H         3.15460899020447    6.87808488756619    4.63971470279282
H         1.67376401487343    7.36580067057554    3.80813856059608
C         2.36196284496928    4.62309304664513    3.35256457325613
C         3.10322767043934    3.45498831576404    3.21392406948190
H         4.04760397848787    3.48638125759052    2.68904162655263
C         2.67389092334458    2.26108176212955    3.76401297053896
H         3.27028354767870    1.36797116303098    3.64322586742641
C         1.48827370332235    2.21349209232470    4.47548333181119
H         1.14778018358759    1.28385202208786    4.90657096725708
C         0.75324365464181    3.37330280045886    4.64555077578492
H        -0.16280840516188    3.35266328948935    5.21793919586993
C         1.18804982912633    4.56601949916807    4.09491242173782
H         0.60937532218044    5.45921145775112    4.27207037803360
C         4.87540167781383    5.19017513575413    0.03627619181503
C         4.12059031517144    3.91559356708818   -0.14743315724151
H         4.24166090353739    3.57261955641548   -1.17663326702999
H         3.06040636363931    4.06041015005652    0.04772763670795
H         4.50201511900049    3.14072433073319    0.51418398079237
Br        6.82400217401811    9.35309456457188   -1.04531394244371

