33
CSD_code = NENVAG | q = 0 | S = 0 | Stoichiometry = C12H12CdN2O6 | MND = 6
Cd        2.02971983645659   11.64284036083527   -0.68277311011902
O         1.05179141769120   11.13330780823038   -2.40839320500436
O         0.29145886296175    9.39095920788022   -3.56427343126069
C         1.33320241771317    8.94048086778769   -1.48890801193445
O         1.04430662255632   12.04401885995093    1.42823248627397
C         0.83834209910596    9.89598122863699   -2.60260115736281
O         3.31975420978968   11.25835133831290    2.54547645665061
O         5.04876098947212   13.51100092177974    1.05900164700879
O         3.99630164995290   11.84588948199570    0.03007992440786
N         1.83025179477459    9.47934889239403   -0.37560997875781
N         2.49510078136671   13.67962812100955   -1.30529009143564
C         3.66954131049772   14.05010762624953   -0.79598791356502
C         2.41612033831904   15.69830318892848   -2.55357226465778
H         1.89104929606625   16.32113081486416   -3.26053885471258
C         4.26954229739530   15.26106783200874   -1.11573422887750
H         5.21288875734155   15.51538735296595   -0.65857273123104
C         1.24181947229140    7.56499114858545   -1.66944855009566
H         0.82334466662596    7.19769641903813   -2.59359312165386
C         4.31546994866600   13.07490030268705    0.18950354884458
C         2.25888682151575    8.67619509138590    0.59509708867199
H         2.65429094760700    9.15676268057591    1.48232775820176
C         1.87932551285455   14.48019010401588   -2.16641307833934
H         0.93439466944219   14.12189057694343   -2.55655434359288
C         2.20882551877610    7.29595332025961    0.49128041953856
H         2.56970791903066    6.68053379557745    1.30034198294515
C         1.69115729556837    6.72746003718124   -0.66483667070445
H         1.64138847207494    5.65427839869665   -0.77599200867758
C         3.63179064941449   16.09755621799573   -2.01624046617943
H         4.07321869877455   17.04261258135986   -2.29631757279160
H         3.79707372980213   11.31327758450293    1.68617081509419
H         3.76078234376847   11.90546448811602    3.10308372443178
H         0.32511565562021   11.48623799999242    1.74586515676838
H         1.83847499665870   11.79059534928555    1.97568978209781

