126
CSD_code = NENYEL | q = 0 | S = 0 | Stoichiometry = C44H64ClCuN4O8P4 | MND = 3
Cu        3.62695939622334   11.80139337405982    3.78121301329065
Cl        5.03182353183068   10.25393384491939    4.49303797638786
P         2.95340785920340   11.90450785910830    1.67821857592014
P         1.86573677315298   10.07370614084012    0.21951231733354
P         3.19193368819894   13.23521489187191    5.43748839972207
P         4.97544073045224   13.77682894859315    7.21604180893900
O         3.17777321332329   13.41831145119061    1.15349149997824
O         5.33362695986932   14.62494025380495    0.25609097102770
O         1.51242645396801   10.71548456503069   -1.25400659749897
O         0.05668457348272    8.48980026775781   -0.83051738826385
O         1.76268789229577   14.01950320864239    5.41616687890663
O        -0.27645385864781   13.14388329685493    6.86010000704385
O         4.40819428843462   15.01697918823592    8.15218002123597
O         6.25481785249684   13.55675007446271    9.45362281276177
N         1.37821496146245   11.44953282875881    1.17705657468543
N         3.38814705010686   10.90185928698719    0.37345881486453
N         3.48000742287484   12.88735365982881    7.07654508319743
N         4.35382283786548   14.45182032450026    5.74054425004748
C         0.23070785955031   11.45764251761796    2.06681405998917
C         0.40153425102394   10.42615865952899    3.18378069131886
H         0.49788068298085    9.42986646894089    2.75456574299809
H        -0.44802363426118   10.44311512583164    3.86198464655967
H         1.30605841548138   10.64650165922564    3.75273322696221
C         0.11649985679933   12.86047513635899    2.66313120958483
H         1.01753336606422   13.09579862373205    3.23156262023514
H        -0.73703849076678   12.92297022020807    3.33377701075694
H         0.00337432595027   13.60054637764840    1.87361064847399
C        -1.00367603945737   11.12326997717671    1.22794117211984
H        -1.13748933608326   11.86302119260523    0.44137186130763
H        -1.89539802012010   11.10283013941573    1.84984732949046
H        -0.87022475317011   10.14749376499598    0.76459615160471
C         4.67018149924247   10.23503890218089    0.20797881104824
C         5.77025317386792   11.22334240152554    0.58457575920298
H         5.66985715977084   12.14117112728780    0.01106205005741
H         6.74997128805022   10.78984885923463    0.39883911471035
H         5.69561575469296   11.46416274560938    1.64549229807042
C         4.76750515651351    9.84152950988694   -1.26789516503075
H         3.95494480318495    9.15879816659416   -1.51674166182872
H         5.71508577572853    9.34923177093619   -1.47235506201946
H         4.67799902609837   10.72496829828918   -1.89690436489059
C         4.76553733072112    8.99167854248011    1.09133875300711
H         4.70020924536905    9.26932876450670    2.14233882783614
H         5.71276709144264    8.48222671581573    0.93115800979137
H         3.95248502123137    8.30497008361059    0.85809862663100
C         3.14226911764284   13.88844241868739   -0.14183088533132
C         2.02497507799881   13.77176493978312   -0.94356562673503
H         1.15987130769597   13.26217873317097   -0.55511858513142
C         2.03197480903348   14.29051106212044   -2.22940680489463
H         1.15410825573762   14.19457266687632   -2.85005369286032
C         3.15824435736111   14.93014265570361   -2.70558033292166
H         3.17370945090644   15.33585426874731   -3.70620637004900
C         4.28246273981429   15.06480292506891   -1.90439248977013
H         5.14977782975187   15.57314776835392   -2.29526173701173
C         4.28957122676786   14.54967657015702   -0.61600501962949
C         6.51398338691507   15.26175304367577   -0.16130884941883
H         6.95612994870898   14.76663124185862   -1.03217454760141
H         7.20188655279448   15.18431399889303    0.67935826555660
H         6.34200046802653   16.31819985663542   -0.39341228757551
C         0.79666693463645   10.17169724250950   -2.26553116240965
C         0.83543993748937   10.79267341748413   -3.50395750454963
H         1.45384951878705   11.66944835109748   -3.61457116241365
C         0.09656679269108   10.28980027684383   -4.56187431882160
H         0.13434640754505   10.77942481658366   -5.52251794599618
C        -0.68358087270460    9.16413717749563   -4.38329012357033
H        -1.26257657208848    8.76617990888897   -5.20234245999869
C        -0.72944363924832    8.53091316763373   -3.14992608128194
H        -1.34241617122961    7.65185663483267   -3.02827254429756
C         0.00986673706028    9.02406666170955   -2.08768120065127
C        -0.72239282408769    7.35125823317155   -0.54799136742933
H        -1.78959481931516    7.55596091145736   -0.68037812054550
H        -0.52439000603304    7.11119615470214    0.49520801562328
H        -0.43047468490441    6.50454520359016   -1.17600553232298
C         3.16529854511509   11.65212146686484    7.78016721470235
C         4.42762645601437   10.82295723456017    8.00787573803186
H         4.87927741194608   10.56895423865262    7.05064400976634
H         4.18748312869210    9.90285926551758    8.53594750277696
H         5.14338777604520   11.39348930855768    8.59496513042529
C         2.54896307442025   12.05275820114123    9.12666556990658
H         3.26148848989695   12.64502486358336    9.69883879236195
H         2.28045973665113   11.17103528332097    9.70412382531652
H         1.66086313876283   12.65910540795842    8.96393438905177
C         2.16824677669635   10.85134833352465    6.94528391251950
H         1.34203039472522   11.48646465781826    6.63061630040837
H         1.77714288488618   10.01496308179086    7.52049536723709
H         2.67235797469363   10.45547206917108    6.06424414827886
C         5.20930041133571   15.02960948424431    4.71780223001370
C         4.31651602598982   15.54291940256920    3.58824064139659
H         3.71081796081900   14.72385800668273    3.19808523760551
H         4.92009857276788   15.93585961369655    2.77432231455681
H         3.65124148676234   16.32579174204745    3.94578236770984
C         6.19106559451926   13.99318282724772    4.16928462347746
H         6.81212402187832   13.60373377518876    4.97441471724648
H         6.82916359642369   14.42915407598451    3.40425479079130
H         5.64313796228995   13.15950977291331    3.72816836046468
C         5.98019157881313   16.17767513085373    5.37224409028566
H         5.29000553927289   16.91321499904025    5.77901976218384
H         6.63329648368039   16.66225717605660    4.65053156505957
H         6.58362815642869   15.78772408044485    6.19169121317777
C         1.28895869824789   14.83603481761314    6.41812587637989
C         1.82466588015693   16.08653295203613    6.65346707829756
H         2.66207704321409   16.40972655456378    6.05912144014262
C         1.29675802349109   16.89905889459185    7.64464139059066
H         1.71464800046898   17.88045075021585    7.81247962692586
C         0.23729833386484   16.45129222323735    8.40709081486727
H        -0.17546677297703   17.07269092990840    9.18780400683887
C        -0.31302998021018   15.19942948799472    8.17742014562309
H        -1.14300110368111   14.87089832741212    8.78308392202970
C         0.19891517827304   14.38176426041198    7.18049224460875
C        -1.34651815172654   12.62132679569836    7.60600894206120
H        -1.09048347878681   12.52196293238769    8.66600026597835
H        -1.53930381263780   11.63293769626987    7.19110315848952
H        -2.24587555804809   13.23776126471307    7.50551157209168
C         4.66721536198525   15.26104695444758    9.45690786739517
C         3.95434377172496   16.26370752714135   10.09521491864933
H         3.21558818576926   16.80388684679618    9.52547872864912
C         4.18276673567175   16.54440629483610   11.43201686465674
H         3.62194847799648   17.32785338271984   11.91766946832043
C         5.12299635585099   15.82020020382273   12.13833696672400
H         5.30719280736896   16.03312074390654   13.18011627592086
C         5.83871313503572   14.80853552757224   11.51548514295149
H         6.56711042572535   14.24847744533557   12.08045344081933
C         5.62002615551132   14.52470936819193   10.17763247964875
C         7.21443611337496   12.74676139143003   10.09161099128170
H         8.04979342762009   13.34535430782830   10.46706624360802
H         7.57482737582317   12.06163924294025    9.32602964363552
H         6.77215248721409   12.17584985223435   10.91422975261195

