62
CSD_code = NEPBUI | q = 0 | S = 0 | Stoichiometry = C30H29ClPRh | MND = 6
Rh        0.32477656509391   22.80404221541342    4.69259393445967
P         1.21967006526811   21.31521325797143    3.23122320610842
Cl        2.44406405786322   22.75914348216135    5.51214914463428
C        -1.37570720651100   23.43056278520821    3.57537138721297
H        -1.19475346072736   23.25562409240189    2.51494579481135
C         2.40354981759796   20.13095646812945    3.96139802981112
C         2.04510890434734   19.45771098276925    5.16339754923365
C         2.14468643816088   22.15715561662364    1.90941669205195
C         2.57621464946478   21.50182424889238    0.75816947381187
H         2.37356535339669   20.44668004395786    0.62976657597214
C        -0.05966131705200   18.87638375089839    2.57001534418414
H         0.44968363098118   18.44453813611311    3.41942959989511
C         0.81472799176304   19.67092882732110    5.81771166692734
H         0.11003020919511   20.38681906621160    5.39520206355278
C         0.50629666234904   19.01492156292429    6.97638909225513
H        -0.43643901299666   19.19788692153119    7.47121195133875
C         0.16248354982218   20.20563911595493    2.22735862726769
C         3.64237949681785   19.92197107750411    3.40794634881382
H         3.94323703134265   20.46227633313119    2.52275285095140
C        -0.51979792078846   23.72233679189347    6.47526619826620
H         0.09835311525908   23.36232993358390    7.29810682370262
C        -0.92486362602187   18.09771513195843    1.82089161126882
H        -1.08494967425983   17.06437106133296    2.09255980762988
C         1.41108154533599   18.10051440138615    7.53587160232365
H         1.15191682953201   17.58663658190168    8.45006416724799
C        -1.58286930056627   18.63723442265081    0.72901828938220
H        -2.25744629790658   18.02732763126757    0.14655597449969
C         3.25150776124572   22.20450589402307   -0.22251197404772
H         3.58890825039431   21.69384822494090   -1.11302037229623
C         3.49410225714733   23.56080521433823   -0.06736436766759
H         4.02227695493763   24.10396946462932   -0.83737881926708
C         2.96758907828098   18.54606125593865    5.74198311980265
C         2.37717401315294   23.52035864541817    2.05242133145584
H         2.02373964482394   24.02100397557861    2.95071290744893
C        -0.50947263067601   20.74217527886180    1.13099491562312
H        -0.33789393099141   21.77461373664902    0.85687484503327
C         3.05356589980319   24.21929441359916    1.06854701298967
H         3.23593378118490   25.27750026736273    1.18523984849335
C        -2.00181927163010   23.45514630058696    6.61627270147909
H        -2.20758813355675   23.12780071851122    7.63748905223413
H        -2.54699205153408   24.38721595650613    6.46055673105703
C        -2.49797656002808   22.37208014459786    5.63910359402856
H        -3.55769534603771   22.53044975020590    5.40830655473231
H        -2.41891681697372   21.39477537727607    6.12288029888273
C        -1.83066175981509   24.83868832646447    3.90129574101706
H        -2.79527724434470   24.79168297416138    4.40910864243511
H        -1.98577236758704   25.38571167710884    2.96894552528126
C        -1.70818422295157   22.31789419812711    4.35040478611270
H        -1.80569280013133   21.36143576930696    3.83240668665852
C         0.00439260257888   24.71021305438487    5.66575565607690
H         0.98928505561172   25.10330367006314    5.91610244670120
C        -0.80552271670592   25.60613169115210    4.75839068719673
H        -0.11273874098072   26.13168236219281    4.09622464563487
H        -1.31359525156054   26.36564856551231    5.36299894372706
C        -1.37239264435597   19.96325182292910    0.38489208324325
H        -1.88255434964119   20.38908542690162   -0.46694091033053
C         4.21810313068262   18.34109301975146    5.12259218199362
H         4.91284744881413   17.64629847294842    5.57273949919632
C         4.54893388920720   19.02290234862288    3.98698436087476
H         5.51486358085756   18.88147906073728    3.52416379036042
C         2.61498188169658   17.87417380830708    6.93132780697790
H         3.32430351242147   17.18037519116260    7.36011623920779

