53
CSD_code = NEPBEP | q = -1 | S = 0 | Stoichiometry = C19H27OS5W(1-) | MND = 6
W         8.66079386981840    1.24224788963337    7.54688547689705
S         7.96530187824642    1.43925538418964    9.81058923016728
S         6.46605117402185    1.10859061402755    6.47209380191334
S         8.78916711933037    3.64840780204593    7.66423502848029
S         9.04608049088191   -1.14017048351757    7.92129444633056
S        11.10350824717415    1.20887221745743    7.39124580867912
O         9.54176560151541    1.16267413556995    4.54792798454210
C         5.30287167705108    0.83350979323817    7.86892000261693
H         5.51397622739614    1.62698226807538    8.59495076667025
C         8.20030525074050    4.07093784717860    9.24650568501273
C         7.84636742370552    3.13487594635338   10.15298475976896
C         3.85946617661315    0.95361105050961    7.38221971369627
H         3.72715883823894    1.92705044346955    6.89741784192675
C        10.55246319012078   -1.43046851681474    7.10636096570881
C         7.35863584272295    3.49234931843542   11.52788192164271
H         8.11714614945007    4.05683019856978   12.07299648443500
H         7.13149551435371    2.58452272003887   12.08156745986057
H         6.45839083118802    4.10697614705374   11.47033211380303
C         3.12800493183884   -0.51842315879272    9.25930702565659
H         2.45690751283774   -0.60164596809821   10.12467347298847
C         2.92704249565866    0.84014136250374    8.58933852427689
H         1.88814681467959    0.94830712257245    8.26399246863218
H         3.14161601605973    1.64048954332827    9.30212650391607
C        11.43425410722444   -0.43179436341621    6.88889174375460
C         5.19466652457918   -1.63986765090161    7.51082989913882
H         5.86854810066444   -1.54573388389941    6.65641639092637
H         5.36826715822733   -2.61432482716243    7.97345304976991
C         9.16191649758511    1.18424703553279    5.63842032318666
C         2.81185274801662   -1.63197013649269    8.26094199723438
H         1.76950867909014   -1.55594912319773    7.93673338900063
H         2.94378901257407   -2.60602894512783    8.73975717843555
C         5.50689364188250   -0.53432320980169    8.51407088562727
H         6.54835609828717   -0.62895857893576    8.84431488211593
C         3.54597636502483   -0.15793037037228    6.38343589830956
H         2.51634660360964   -0.05617936351060    6.02790451515167
H         4.21729752337271   -0.06544452380709    5.52874926261088
C         8.13843643834856    5.54051265747768    9.54742502572520
H         7.11230210933399    5.84745290164844    9.75667178687107
H         8.50573645369855    6.09977679370094    8.69151538465863
H         8.74818660065722    5.78334677899133   10.41906320734497
C         4.57825664931329   -0.64666535010742    9.72184102447313
H         4.73283623505572   -1.61034229251386   10.21332541344079
H         4.81663380126196    0.13920648711010   10.44220176483785
C         3.74324328611259   -1.51549679373749    7.05396842244905
H         3.51291817764098   -2.31424396633372    6.33778376991753
C        10.84488198414819   -2.85265908497829    6.72697265938880
H        11.77985171438471   -3.19195863715276    7.17456621660500
H        10.93493231355436   -2.94339314817217    5.64392535587602
H        10.03481360890444   -3.49151173176726    7.06735053819369
C        12.76693914926142   -0.65989815903586    6.23778183842939
H        13.35806294577171   -1.38239266753138    6.80260180161390
H        13.30993521885682    0.27957326057048    6.18831212266533
H        12.63529697969668   -1.04537278390849    5.22612676460366

