75
CSD_code = NEPLUQ | q = 0 | S = 0 | Stoichiometry = C34H27CdN7O6 | MND = 7
Cd        3.38958473466333    8.59990389048862   19.65362065595581
C         7.41380014799145    6.77626758595633   15.57405258017501
C         7.41758674882085    6.13916296882936   16.84080179101420
H         6.55496466969455    6.21266935629565   17.48750888292252
C         8.50771419416940    5.42950391514137   17.24739511959283
H         8.49921368348138    4.94443201231909   18.21160203536269
C         9.64863152936318    5.31432060099804   16.42526951187351
H        10.49746242163442    4.74955573334174   16.78135927877344
C         9.67796432285441    5.89863913669468   15.19643013349007
H        10.53240688367536    5.81911787190165   14.54350672579411
C         8.56437580828995    6.63937465812042   14.72428787848383
C         7.60539333513144    7.86600640752969   13.03847732807910
C         7.70484574305472    8.41797544114234   11.73549535616658
H         8.61330367656851    8.22974319097127   11.18606226479283
C         6.68659062788855    9.15738238227646   11.21748467724448
H         6.76575976784701    9.57696004827526   10.22573660079846
C         5.51713005903397    9.39651610147952   11.97013723996509
H         4.73074509548653   10.00036660579636   11.54279815813809
C         5.37608146518105    8.88001528914543   13.22250081634532
H         4.48245210900585    9.07762253524203   13.79656392834557
C         6.40500544430047    8.08993718434721   13.79299058996666
C         6.33840403146373    7.52029080996987   15.07069600510618
C         3.92757040550966    7.20983678061113   15.56898125104328
H         3.72232334780417    6.67009005816503   14.66720020239605
C         3.14020858873887    7.54579092902790   16.62933025877445
H         2.09249901497931    7.36921425544301   16.78542487956779
C         5.09781236828630    8.29253557425117   17.05772997801519
H         5.92775520366152    8.78504641558552   17.52699352609488
C         2.50300489336628   11.13177859899331   25.60209026686132
C         2.96966760289644    9.89183885257930   26.10561825863560
H         3.03848844221531    9.04353497103500   25.44009331564081
C         3.33993466015105    9.77102649588553   27.41081542223935
H         3.69693336547630    8.82344295936188   27.78580715355223
C         3.26833654042856   10.87439297991009   28.28714562909682
H         3.56306487046945   10.74483739089071   29.31792449191740
C         2.84461383854507   12.08723611035759   27.83873846823281
H         2.79182574479153   12.94976606151802   28.48372015784467
C         2.45727792858860   12.26195493099453   26.48522552789439
C         1.70582707639598   13.66105426558715   24.82951847360365
C         1.30718507971137   14.96447310134002   24.43810586589273
H         1.34147760283795   15.73881571823590   25.18795340902977
C         0.89598559307253   15.20735631203371   23.16353477119397
H         0.59261859833175   16.20129254093749   22.86899613291360
C         0.84721952627699   14.16474065045493   22.21408656967583
H         0.49924462029285   14.37370003640997   21.21437124182109
C         1.22737079236976   12.89782698727466   22.54124368287385
H         1.16394734808229   12.11385791851609   21.80182433041924
C         1.68327859544857   12.60750044630737   23.85178364715729
C         2.09828358270011   11.33899685096799   24.27601922945038
C         1.37419313970575    9.10982685820163   23.46857075944468
H         0.66460534436589    8.96254996254325   24.25666772617433
C         1.72480186830897    8.33494991359218   22.40481787213951
H         1.36930207654542    7.36567681375745   22.11342630876664
C         2.87772338974844   10.13442045916179   22.26588874935566
H         3.57646486870185   10.88151481165059   21.93581114321513
C         5.96816304891779    7.54390538382726   20.06098394460658
C         7.44048580187031    7.44176794613691   20.44453062725395
H         7.73438287187877    8.31257548582678   21.02205505213675
H         8.04273718519188    7.37901959680893   19.54012421710896
H         7.59969877904650    6.53510367596935   21.02277880500150
N         8.62972422095207    7.16820560956418   13.50956628035559
N         2.07543006368305   13.46839718230677   26.08895882097438
N         5.17773545433868    7.68600396527125   15.85652274237539
N         2.11422423732159   10.25659628480385   23.36925392668069
N         3.88507313248571    8.22499061621304   17.54600650299518
N         2.67037757479907    8.98407377597787   21.67038511126695
N         1.69521439050110   10.17149187726307   19.46816238669336
O         2.84144690090339   10.59407235643038   19.28138563539632
O         5.43291745466643    6.57196329256712   19.48901964083766
O         1.39896107770817    9.03911263174902   19.08618320225855
O         5.37323991923803    8.61706287073011   20.32788968764997
O         2.83503363566434    6.35874543128699   19.96515551818245
H         2.42229276687424    5.99253732209858   19.17565824559503
H         3.80885110496033    6.22896570991451   19.84078510117791
O         0.87414796286697   10.87176824772915   20.00515829649163

