33
CSD_code = NEPNED | q = 0 | S = 0 | Stoichiometry = C13H14Cl2N2PdS | MND = 4
Pd        2.93248679120056    1.89403954711826    1.25260562038001
Cl        3.57798978108930    1.33347429051260    3.31293278486699
Cl        0.76175238519138    1.70508881526313    1.77369039480496
S         2.33960505559820    4.63915276451517    1.53549779426949
N         4.83793086948573    1.92193701815299    0.61161935863819
N         2.45696192450258    2.40516585132889   -0.63900030136456
C         5.80510813026947    2.61702325617456    1.20078246436882
H         5.54356460032996    3.09232462126896    2.13951954357698
C         7.07592850498153    2.70739400598711    0.65955594665082
H         7.84036747334069    3.27436308272454    1.16539573469171
C         7.34055550391948    2.05232801773587   -0.53352932889422
H         8.32008483029719    2.09891508084512   -0.98401858094552
C         6.32453583076690    1.32723766754241   -1.13850549184526
H         6.49960869333816    0.79885248261964   -2.06296167392726
C         5.07620855401630    1.27455289626719   -0.53615736393435
C         3.92059330015939    0.50550627403864   -1.11982607138796
H         3.47467022458195   -0.11383029591309   -0.31897366644094
H         4.26085470646143   -0.14478485573627   -1.92645469765724
C         2.82909753936328    1.45513109848458   -1.65651209745779
H         3.19591937362314    1.97879431160810   -2.55109564202071
H         1.95224061270935    0.85845272533452   -1.93989229655352
C         1.83309855099509    3.48621621349106   -0.93905301273119
H         1.49781539662617    3.65827895601443   -1.96634683236037
C         1.55428016835951    4.52716655407416   -0.01582146285343
C         0.70525860177034    5.59824890596790   -0.21299573825187
H         0.11771222612348    5.72110302702533   -1.10559558085154
C         0.66229587926279    6.47154429274609    0.87657544494911
H         0.03868317707021    7.34710653881840    0.91392207139329
C         1.49642837652000    6.10002843242823    1.89862127865313
C         1.69410655285455    6.77163626587753    3.20713992645895
H         1.25209705776499    7.76479044361419    3.19642136993824
H         2.75351541169900    6.85081211813806    3.44342092471786
H         1.22304391571408    6.18914959593081    3.99913918112629

