105
CSD_code = NEPPAC | q = 0 | S = 0 | Stoichiometry = C40H58N5SSc | MND = 6
Sc        2.00196255354981    6.60444021408484   10.73173335572201
S         2.21233679952549    4.96984933110376   12.95667257573603
N         0.58920713250717    7.99347382239619   11.56815652062044
N         1.27215073333872    7.11353393462064    8.76405812299273
N         3.20650278490331    5.03656307103294    9.13948810942869
N         3.90099385266670    7.20820356409473   11.20870835097388
H         4.11675280335001    6.53188398233502   11.94899881965148
N         0.56941580046871    4.82261117221329   10.95060783124862
C        -0.46799106608066   10.22297137043839   11.57247939385263
H        -0.68222340662116   10.01270665980329   12.61696881744753
H        -1.38177299113128   10.53704026171272   11.07249701449284
H         0.23583925425391   11.05378919640242   11.52115643483517
C         0.14636868761693    9.02725960205193   10.87443622271380
C         0.19166608101524    9.13547723101086    9.48019423696168
H        -0.23723493181482   10.05097914394584    9.09717088121296
C         0.64356737221653    8.24460225761332    8.49911050666627
C         0.34130567871326    8.64009262942274    7.07084449331233
H         1.24305383384483    8.62697667420798    6.46087825735102
H        -0.09413094341249    9.63365411174145    7.02591007713769
H        -0.36750631769301    7.93774137093563    6.63062398364784
C         1.65230429127531    6.28290469279511    7.63432560486787
H         2.41416097828458    6.79452265243007    7.02699290397519
H         0.79227502470248    6.08545101342402    6.97716830724114
C         2.18866844918480    4.92197828615416    8.08868980655777
H         1.35313735782522    4.33328500195443    8.47811704092631
H         2.59757548422066    4.39344430078034    7.20908513740460
C         4.44866972591340    5.55327139004120    8.55869874883263
H         4.31090153196914    6.57605771076443    8.21481571634797
H         4.77608330888673    4.92845253656769    7.71370247197195
H         5.23295910202241    5.56082767184324    9.31203198622956
C         3.48754697200208    3.70627913693426    9.68222558127479
H         4.22504934626995    3.78518810496630   10.48074477704901
H         3.88123318870203    3.03343261704483    8.90583876786437
H         2.58060552151041    3.26412563868268   10.09357193199384
C         0.25688570487337    7.89455646271516   12.95165557153629
C         1.14325591013259    8.33631366705484   13.94873766755791
C         0.78771596777198    8.19226009398287   15.28266566810528
H         1.46709761190986    8.52797064054123   16.05087114854022
C        -0.42203678548806    7.63660654128028   15.64667698376674
H        -0.68447958079666    7.53641048861041   16.68945538493546
C        -1.29657349315576    7.21335961886930   14.66563752805195
H        -2.24612858079711    6.78761843036630   14.95184579487929
C        -0.97945571948770    7.32979482792864   13.32021944916394
C        -1.97680446505455    6.85998694708075   12.28367442828584
H        -1.46782631639760    6.82423866217135   11.31476299427344
C        -3.15222567443759    7.83562778348037   12.17683582188029
H        -3.65529191564023    7.93119328354297   13.13702058657829
H        -3.87115771611900    7.47176849917786   11.44534844967920
H        -2.81459582047292    8.82009262973082   11.86777071438695
C        -2.50749128662224    5.45861249014660   12.59797566330877
H        -3.20534390210520    5.47980011077932   13.43164076593854
H        -1.69213014129468    4.78719841852468   12.85375990416944
H        -3.02794468105508    5.05380437445957   11.73182210252269
C         2.46619563808798    8.98479890058124   13.60981338122624
H         2.63846425907509    8.88699164831724   12.52706775237178
C         2.44449186637506   10.47165515860861   13.97788963754619
H         1.67658654429781   11.00202504254063   13.42068513797410
H         3.40906820078850   10.92517962685075   13.75827743090794
H         2.24254897088663   10.59919484177452   15.03948798805231
C         3.62494495320707    8.29010384929563   14.33057442989464
H         3.63294545982620    8.53270798394125   15.39091676180520
H         4.56934331516742    8.61539967707773   13.89857492566781
H         3.53862368419960    7.21030354252330   14.22706595771133
C         5.07939452607709    7.77980390350612   10.82933068051386
C         6.33988192936901    7.23768027613734   11.22246291762215
C         7.50562374264800    7.91450505867919   10.91263589960659
H         8.45405476735492    7.51551331092115   11.24186718588212
C         7.49591342681466    9.09197160978704   10.18845855889150
H         8.41891956862015    9.60464153109905    9.96229997630858
C         6.28429798250099    9.59680937555323    9.75309368780574
H         6.27515446613420   10.51239098792124    9.17911962926361
C         5.09000915812504    8.96867175062838   10.05014993415697
C         3.79782318456885    9.59002706568642    9.56735379009161
H         2.97026932947208    8.91503822957957    9.83731890934825
C         3.55179553811015   10.93913866123713   10.24764980562180
H         3.56358403482649   10.82364570111234   11.32725358957636
H         2.58459441538291   11.33937869433340    9.94894941984732
H         4.32226263125062   11.65558439253466    9.97121050095279
C         3.79012806935459    9.76949627609915    8.04741603751844
H         4.56244176254480   10.46726617330594    7.73298972553540
H         2.82717041201783   10.15881632843845    7.72430758839219
H         3.96907917108608    8.82036458332225    7.54569680948130
C         6.46162665295996    5.92581675179192   11.97868301218227
H         5.49742156207390    5.40248131099993   11.98558985274512
C         7.46522270061918    4.97759143828782   11.31113705969867
H         7.25604405612248    4.87234175024586   10.24779310375796
H         7.40907999102701    3.99350814051977   11.77371167005436
H         8.48365169049312    5.34028589811072   11.42015659366069
C         6.86417713650340    6.17038446328678   13.43558804126135
H         7.82016197762488    6.68701613218482   13.48460310590056
H         6.95304282065576    5.22489700370846   13.96743986598987
H         6.11892413974051    6.77888246196265   13.94096797049573
C        -0.45929916044237    4.20822346461835   10.23374023031455
C        -1.20488827039940    4.98639492325158    9.34117384398134
H        -0.97284124061897    6.03971670492361    9.25301069757741
C        -2.21851482168541    4.42265581343906    8.59394006077748
H        -2.79291983186620    5.04111109935682    7.91886252740578
C        -2.50482553424798    3.07054294085098    8.70499333539741
H        -3.29892849448486    2.63134914402946    8.12027455170578
C        -1.75430602481229    2.28506102585007    9.56296045336351
H        -1.95681744012882    1.22674693195359    9.64270659248255
C        -0.73898249157181    2.84056552211244   10.31820115669993
H        -0.14559000978364    2.20468673075017   10.96015639658557
C         0.90444855923297    4.35496842769034   12.12233792212113
H         0.34989791506659    3.54638341265357   12.60437449014803

