43
CSD_code = NEPPEF | q = 0 | S = 0 | Stoichiometry = C17H17BrN2O5Pd | MND = 4
Pd        6.83518145254811    1.02791659868294    0.37770247983106
Br        6.96274873919721    3.12584417961898    1.49208749783361
O        10.43581729015657    2.27061496707179   -3.65313872935266
O         9.12280949739177    0.53443187894100   -2.96246466439992
O         6.58321931448993   -4.28617570375538   -2.53027711535977
O         4.35414493092925   -1.79517766839194    1.96164306144511
O         3.18292743025135   -1.28557097762811    3.85531470806507
N         8.13806646937758    1.33964391762672   -1.16069665990905
N         5.49220940749694    0.05354329198650    1.56602480764917
C        11.84757222801116    3.96538051865431   -4.54264444380458
H        12.20065926470657    4.98275549373705   -4.40590708210648
H        11.35842437323901    3.88330245777966   -5.50889214188155
H        12.69551964586331    3.28685331729177   -4.52408945988510
C        10.87278740518962    3.61081793409625   -3.43422043279888
H        11.35493790297754    3.67978177034401   -2.45146701876699
H        10.00555404685795    4.28232183653237   -3.44579243645507
C         9.55832423634351    1.80008947119352   -2.76980600062691
C         8.95814458145503    2.31611521165685   -1.65579142617728
H         9.04353740908163    3.27449849302182   -1.18347912621572
C         8.25969089871205    0.29114168145734   -1.96229668855078
C         7.49791117796109   -0.90418537411749   -1.68072681336899
C         7.42506410735481   -2.12907602036741   -2.33002367958567
H         7.99766205298214   -2.34397387887818   -3.21795501481047
C         6.57961052542035   -3.12431841659710   -1.81772529101048
C         5.81015244198094   -2.91674206908270   -0.67238904401606
H         5.16082551093870   -3.68185460761502   -0.27868975635633
C         5.89417398006656   -1.68045903354130   -0.02922596719801
C         6.73079092997924   -0.68720873963644   -0.53281095503875
C         5.23581511719323   -1.17991421038909    1.15431217350188
C         4.74612710786123    0.25918852660796    2.69435445131853
H         4.77302475781363    1.18912737104010    3.22658814097976
C         4.05005615639140   -0.89352605151729    2.92377521751455
C         2.89045873851609   -0.32365655151101    4.86740959120865
H         2.45315325335404    0.56930016511766    4.40426162804513
H         3.81964530219532   -0.03502842656745    5.37379794403659
C         1.91728756496368   -0.96042797681610    5.84308608675318
H         1.67298093056387   -0.25207982299393    6.62871163513530
H         2.36127770235876   -1.84709024341137    6.28648874210058
H         1.00673345953904   -1.24939905190041    5.32611326458410
C         5.76479918828892   -5.34759021063744   -2.10226778552332
H         5.93245418465032   -6.15214371800564   -2.81641529899447
H         4.70586500038539   -5.06970402493789   -2.11377686484198
H         6.04115428496422   -5.69146630415762   -1.10030153296779

