41
CSD_code = NEPQUW | q = 0 | S = 0 | Stoichiometry = C16H18Br2CdN2OS | MND = 5
C        -1.73671421438405    4.78057299017912   11.84104494806524
H        -1.01416595007881    4.01511992083283   11.54789800046701
H        -1.99710501038451    5.35638115149204   10.95269696115511
H        -2.62231770602166    4.28270728426606   12.22757362015040
C        -1.12279204504132    5.65318849239237   12.87844646809822
C        -1.21262809439914    5.31382932983893   14.24345663118347
H        -1.73093746519540    4.41163571220570   14.52834850867383
C        -0.64039140360330    6.12628478263968   15.18369414194158
H        -0.69351831170213    5.88794648301074   16.23637121306023
C         0.02153065106581    7.29916973447607   14.77474623680228
C         0.60873783903750    8.21250795175902   15.69221691754528
H         0.55835977465243    7.97976430903206   16.74573194201934
C         1.20402110998435    9.34947150864980   15.25780843433666
H         1.63894996886285   10.05115428182675   15.95427641809202
C         1.26827456112999    9.65345727690534   13.87055478875850
C         1.84682704742385   10.83509770775004   13.37414210077265
H         2.27520254928316   11.54662304114647   14.06565124868938
C         1.84544763383432   11.07383146283679   12.02531429020901
H         2.26440508476041   11.98339163829955   11.62336249772765
C         1.29768742558171   10.11790758604816   11.14922020419116
C         1.26180374566926   10.34470223420782    9.67770558514232
H         0.23561990336531   10.26183874514438    9.31618513429095
H         1.84544211335773    9.57274977796017    9.17210857060809
H         1.65869015287727   11.32202538221436    9.41773497239001
C         0.73207765133568    8.75143889195708   12.92476102735652
C         0.07954903828472    7.55551851342612   13.38806610739599
C         3.50517775236292    5.54097124565934    7.49543426624408
H         3.78922836960185    4.98804184406851    8.38436149642198
H         4.22681690028229    6.32271643356136    7.29137071037768
H         3.40756085989255    4.86330661636756    6.65633651165260
C         1.74861588901201    7.14000369195902    6.20733496901888
H         2.58166106653805    7.82317225603705    6.09290204486813
H         0.80933472957110    7.68279603272400    6.20083581628929
H         1.74377818652779    6.38943540206540    5.42683911691024
N        -0.48195543662668    6.73618346334610   12.48340517569285
N         0.78520492045737    8.99018620935512   11.60404572032134
O         2.18869218522282    7.41063680186253    8.76547689932659
Cd        0.54167132604300    7.01044856223321   10.33642689593375
Br       -1.12528740524707    7.09474501661541    8.48753686451838
Br        1.61114553328541    4.72214167100088   10.49339056236971
S         1.87309907339867    6.29419856264797    7.82418598092421

