25
CSD_code = NEPVOW | q = 0 | S = 0 | Stoichiometry = C8H5AuF9NO | MND = 4
Au        2.61148641540034    6.40869134361108    7.14055300055729
F         4.18797701932800    4.23940510136997    5.94797392732896
F         2.96361337258730    3.51355848718582    7.55819075974763
F         4.79001609366590    4.56294604866193    8.00150829545559
F         4.13676632018671    8.13268138961301    5.49289699148428
F         5.41579671944664    6.84262890087065    6.61728710996142
F         4.48552362626517    8.50717314987900    7.58527567519208
F         1.91369117342780    9.29760075141512    6.73157034077621
F         0.39576017004204    7.89070964549800    6.14232787953896
F         0.73401747827327    8.30989844373391    8.23304681815610
N         0.43385265033406    4.28800175088054    7.06750852032502
O         0.84356382337446    5.38043960912522    7.65111703689315
C         3.72591235602396    4.59308272917718    7.17946372483110
C         4.26887678434832    7.53243670043320    6.69014757277316
C         1.37656580029565    8.10876035567437    7.06379350166996
C        -0.21573899209831    3.38686253712463    7.81813660756605
H        -0.32581977382842    3.64438372429003    8.86037405497589
C        -0.68875709367612    2.21778496450742    7.26713201914730
H        -1.20260193606775    1.50980349256482    7.89700970844828
C        -0.48700555654836    1.96445176021478    5.91803661395100
H        -0.83896670011117    1.05025104904032    5.46869996906456
C         0.18214583483377    2.91441021715396    5.16200150080668
H         0.36516140164058    2.76527859444249    4.11028654104154
C         0.63012160375635    4.07169495622379    5.76127685995925
H         1.15674140909912    4.84176429731015    5.21598497034946

