37
CSD_code = NEQCIV | q = 0 | S = 0 | Stoichiometry = C16H12FeN3O4P | MND = 5
Fe        3.96561431790451    8.82123669698587    2.83223636598067
P         2.56365197529845    7.44245326044584    1.95428873977389
O         5.81588603310036   10.73285178355981    3.99102027201417
O         5.54214361063515    8.83153196985743    0.35433152863978
O         4.62206450411755    6.88566592878732    4.94294209788355
O         1.78477467782028   10.74304638519143    3.24628407859578
N         2.18894500820956    7.63214202681322    0.30661481245273
N         0.99451099715990    7.38231668686162    2.60887995191770
N         2.95080174003239    5.78658078368630    1.98381256673841
C         5.08811763092645    9.97589129920949    3.53424665425563
C         4.92475977730714    8.82181336392368    1.32042960600164
C         4.35967764041719    7.63738736468670    4.11827171636534
C         2.63548668984652    9.99242101859909    3.07984564889499
C         2.06968557024874    8.85924609297212   -0.31032157327350
C         1.70843834470924    8.66504668888616   -1.60541948592489
C         1.60222184646035    7.26638359166942   -1.80725952889239
C         1.89726980842970    6.65850401283660   -0.62808039045850
C        -0.22028801840719    7.29201012196713    1.96017187142685
C        -1.20597436858911    7.24539736131236    2.89488760567901
C        -0.59019229631294    7.30868749685913    4.16948597700152
C         0.75013408634021    7.39660805567947    3.96525741581979
C         2.10485226441898    4.70562638560747    2.13316459356492
C         2.83994433524157    3.56616057156870    2.04189980615396
C         4.18851562945266    3.94395359334361    1.82532447412735
C         4.22738579759436    5.30163889657856    1.79719697235157
H         2.25506807352980    9.76443766684460    0.23834265606593
H         1.53851792881432    9.42620883546696   -2.34075117961022
H         1.34127746694495    6.77652867746421   -2.72448066824479
H         1.93359170856214    5.61546542135859   -0.37942545555982
H        -0.28347597328948    7.27552740423052    0.88936379164346
H        -2.25845008909485    7.17755621653569    2.70287643100037
H        -1.09126783962049    7.29283067407358    5.11689296575294
H         1.56371961958366    7.46661371424504    4.66379040194929
H         1.05341170271746    4.83717415929375    2.30182151593502
H         2.46812496410163    2.56393468341407    2.12358181926100
H         5.02166843996352    3.27963840633748    1.70938351081217
H         5.05158639542535    5.97738270284718    1.66009243390461

