74
CSD_code = NEQFAQ | q = 0 | S = 0 | Stoichiometry = C27H40N2NiP4 | MND = 5
Ni        5.15657714635343    0.44188990609908   14.07456428109898
P         6.36707393771031    1.91121173792246   15.45102091316229
P         6.38919570165319    0.99246881475596   12.37639292101212
P         4.72533990765888    2.97386842429637   17.78362308764278
P         3.40705786262440   -0.18183707836556   15.20195384370936
N         6.61756368852673   -2.11402250323805   14.56372378350451
N         3.41920354775609    2.69722525838287   13.17775967606767
C         5.36699844674655    3.33199234111609   16.06839718438940
H         4.54633258176109    3.49891653372810   15.36279386697276
H         5.98535540527766    4.23502695639491   16.11499674717128
C         6.05235260213701   -1.12751100249982   14.37920550253664
C         4.08715711444295    1.82046459728456   13.51704406069704
C         7.53457636890350    2.71399552298669   14.24563425212803
H         7.75920079342977    3.73765299111800   14.56435808910668
H         8.46000715396354    2.12882656468692   14.30582185437133
C         6.99723576701918    2.68190999919111   12.81690327434724
H         7.76404035166694    3.00251648770399   12.10489514579668
H         6.13709527692751    3.35233525257472   12.71912875084992
C         5.70866430507954    1.28963565168924   10.69614861502643
H         4.86257978063949    1.97208987443677   10.82257621784022
H         6.46322713366065    1.78495150761747   10.07896766289104
C         5.23827599757989   -0.01613991794369   10.06752429622726
H         6.07861694799728   -0.67264029469486    9.84981708235610
H         4.69848451509054    0.17280197109395    9.14171967386484
H         4.57136198459555   -0.53793603916416   10.75467523747873
C         7.93537447094187    0.02898593176614   12.09303475837097
H         8.44297193575196   -0.01055491410575   13.06323838372151
H         7.61326549727843   -0.99465026037252   11.87594230818809
C         8.88166705089994    0.53085228507321   11.01150029745946
H         8.41221759994237    0.50663915525674   10.03107148424597
H         9.76115429011437   -0.10962437232314   10.97751861739930
H         9.21644044928216    1.54650365470009   11.21090274478562
C         4.05689601173593    1.25355379233523   17.51504491899300
H         4.94143675205906    0.65715623870915   17.24912821269616
H         3.72627422088498    0.88751354298867   18.49126786004937
C         2.95598152566170    1.08604397328902   16.46396583315708
H         2.78021152344502    2.01513630681584   15.91222881496568
H         2.00548404337841    0.80202610431155   16.92408932653981
C         1.82745622622766   -0.33534270176480   14.27468548285492
H         1.02688481209447   -0.63776250017480   14.95460660104543
H         1.59633613475786    0.66254092810782   13.88976474886501
C         1.98432426097459   -1.31630058843147   13.12010963099642
H         2.86005202775599   -1.04191144790468   12.52813305642297
H         1.11028565540919   -1.29932353886499   12.47217199745306
H         2.12746313521924   -2.33203103231673   13.48444108305836
C         3.52473142800898   -1.74662806569994   16.17057573169120
H         3.71642098348012   -2.53624861669596   15.43688326876595
H         4.43414386701516   -1.66263752621755   16.77495818683677
C         2.33634969515082   -2.10876877920655   17.04956324493089
H         2.15181727265752   -1.34533766677462   17.80170927121889
H         2.54316072680396   -3.04442496121324   17.56580932695887
H         1.43161773770268   -2.24529880929375   16.46195665277200
C         7.54658724764267    1.63726268708077   16.81186488938022
C         7.97273796599783    2.63293703328336   17.68340394547133
H         7.59453870641784    3.64087753266162   17.59544781907374
C         8.89127605410434    2.33532052329623   18.67342521928520
H         9.21717531524463    3.11112928450004   19.35110616926307
C         9.39283786667067    1.05003189362762   18.79963492651730
H        10.10884318358949    0.82484152907568   19.57649571032033
C         8.97338774854491    0.05520470798201   17.93249697655139
H         9.35936660220705   -0.94891984967197   18.02836173023650
C         8.05130948788467    0.34708673280446   16.94400714894485
H         7.70817654560358   -0.42685383655663   16.26830097432430
C         3.16279093339466    3.92715720360488   17.74548228279225
C         3.04555064543941    5.12357538612581   17.04594336778903
H         3.87113536341520    5.49130191548894   16.45402915487508
C         1.87230933216078    5.85461590116863   17.10108341343205
H         1.78988207916061    6.77630256645242   16.54343088448600
C         0.80860109471520    5.41114196974290   17.86727475104397
H        -0.10787247877345    5.98120495594985   17.90521380413972
C         0.92909843936030    4.23852026594587   18.59509684676971
H         0.10791455950193    3.89527471714615   19.20788218616810
C         2.10039674498816    3.50800153883337   18.54303244395709
H         2.19496290884529    2.60288565228151   19.12643749048305

