48
CSD_code = NEQQIK | q = 0 | S = 0 | Stoichiometry = C21H20N4NiO2 | MND = 4
Ni        7.61963482239729   10.04590110507197   18.04768748070136
O         5.40241933999106   10.37516975806711   14.87393204578864
O         5.14803249956910   12.59149137709576   16.67692360248831
N         6.84967983705075    9.52858539066252   16.45431593666410
N         6.20709665798571   11.23123752189917   18.20891755813019
N         8.22565175391594   10.36815925823818   19.82590924560731
N         9.26734444697311    9.23160104805530   17.46885569799283
C         5.95576926218702   10.42657632653441   15.95460714969600
C         5.71243241900955   11.55613695281361   16.96547246422436
C         5.78769629209576   11.89289891515893   19.33001222690770
C         4.49281526833926   12.44720390071226   19.37191612374389
H         3.85084936668737   12.32082279372823   18.51616028742226
C         4.04234078556353   13.14525775705947   20.46142203775378
H         3.04654054926892   13.56223221278750   20.45830270283033
C         4.86308635718999   13.30525452516166   21.57576163398836
H         4.50968762795231   13.84637084517271   22.44026855963122
C         6.11630935931894   12.74829474883770   21.57843442019664
H         6.70721938499578   12.84081012173163   22.47506321061450
C         6.61726801468394   12.02312999682796   20.47997761241089
C         7.89379498228276   11.35373602748394   20.60538676727207
C         8.79738874349614   11.79370752900561   21.73122580332252
H         9.83775372093282   11.57904823447266   21.50549334797812
H         8.53282529458691   11.29524331454687   22.66368652088133
H         8.70776406785888   12.86642718684697   21.87504182471634
C         9.31958146827793    9.47536627206228   20.20181171896673
H         8.98751665508767    8.46248916393182   19.94560563308266
H         9.49942988712568    9.49682828914615   21.28056973807027
C        10.63050215715431    9.75241318962117   19.45115134201626
H        11.27025540380741    8.87403904204540   19.55295949075768
H        11.15747774644057   10.60436882852932   19.88372030081624
C        10.36667293488768   10.04456260582225   17.96683427068649
H        10.06499788756408   11.09628249009596   17.86010568942143
H        11.29095225013224    9.90249062091149   17.40194021304903
C         9.43736593593189    8.33705247999867   16.55705679405257
C        10.78543356403377    8.03950963620468   15.95693528833555
H        11.48384815850918    7.69307885037966   16.71800127220708
H        11.19095308489612    8.94074311708162   15.49800914139771
H        10.70543433907405    7.28686798350206   15.18088255047368
C         8.29263470252421    7.62371266182418   16.01519065145206
C         8.41636640014594    6.31344196530723   15.53963789748566
H         9.34579260082605    5.78120750722349   15.68116877043883
C         7.36086399696688    5.66518910488469   14.94155466486265
H         7.47324138702901    4.64824267172205   14.59794708363354
C         6.14992343689529    6.33168997621867   14.78245283202831
H         5.32218811006603    5.83550973293415   14.29813092489331
C         5.98985520726842    7.61059554416712   15.25899483662370
H         5.04505509756061    8.11648615819785   15.14717709577629
C         7.03715673346081    8.28063526021547   15.91228753850822

