49
CSD_code = NEQTUB | q = 0 | S = 0 | Stoichiometry = C18H16F8I2N2O2Pt | MND = 4
Pt        6.07489324192932   -1.65335502059765   -0.00019359409015
I         5.59579018456368   -3.48880346140704    1.74721907461938
O         4.19946505875549   -0.53291941806923    4.95680752631524
N         5.57687064640128   -0.08868037630046    1.21636849977234
C         5.02477427918792   -0.15540952190231    2.42372140732652
H         4.88897271417680   -1.13011076225807    2.86587770612468
C         4.62593853304797    0.95424562519845    3.14878330902965
C         4.80194666271675    2.21106504144862    2.57503813954097
H         4.49667432307618    3.10500354485915    3.09665719998298
C         5.37590670910210    2.28928782157411    1.32400624659650
H         5.51535715028743    3.25061145602037    0.85899605513051
C         5.76716775169978    1.12618000322762    0.65871223397000
C         4.01035258077728    0.78865125639560    4.50687658040680
H         4.46653831341486    1.50371138840464    5.21007018348130
H         2.93288905704935    1.01820644031408    4.44801829415035
C         3.63146712837230   -0.77801593403287    6.21282471016590
H         2.54800622521497   -0.58822577564471    6.21171068395609
H         4.10402938992100   -0.16838011804080    6.99744939105770
F         3.17856761791379   -2.54737265397389    7.68910671112693
F         3.09054517989055   -4.40381357165007    5.89380237728721
F         2.33358040047837   -2.70539139274820    4.78974343248141
F         5.16093600943345   -2.47808606962946    6.83774455795235
C         3.85561174895679   -2.25294310899254    6.55369589009686
C         3.42815541136133   -3.20134762307956    5.40551917412362
H         4.23430780981032   -3.32119869313143    4.66555651330166
O         7.95180867628329   -0.53294946772146   -4.95671667539678
N         6.57366849007220   -0.08867491953687   -1.21654186485296
C         7.12585290166605   -0.15538483451679   -2.42386576000734
H         7.26158998968450   -1.13005546169714   -2.86609382411666
C         7.52486253081404    0.95426423422359   -3.14884019323127
C         7.34891489986139    2.21107174018679   -2.57505895475167
H         7.65430457531697    3.10500673736467   -3.09661659402711
C         6.77488067569454    2.28928360923601   -1.32406102913181
H         6.63551945795707    3.25060076250699   -0.85901044416539
C         6.38347246633934    1.12617807570068   -0.65883959798886
C         8.14065113467382    0.78867343585069   -4.50684540158566
H         7.68447134115694    1.50361508497911   -5.21016469243334
H         9.21807017472525    1.01840967301672   -4.44783065051969
C         8.51983591249545   -0.77800447225818   -6.21272812792978
H         9.60329541213872   -0.58819969852161   -6.21160019381025
H         8.04727256501527   -0.16835654970270   -6.99734194364851
F         8.97310102302242   -2.54745502439674   -7.68880432906594
F         9.06053108502466   -4.40378922212862   -5.89337812813263
F         9.81711299129809   -2.70534524341255   -4.78909666162644
F         6.99047137634192   -2.47801352708829   -6.83807046444754
C         8.29572021774856   -2.25293141464979   -6.55361949585341
C         8.72275560407554   -3.20130356107997   -5.40525898682723
H         7.91632876439325   -3.32111829677422   -4.66558942554679
I         6.55386360666084   -3.48933073556431   -1.74813886481061

