49
CSD_code = NEQVUD | q = 0 | S = 0 | Stoichiometry = C18H18CdN4O6S2 | MND = 6
Cd        6.08180347790462   12.57762886072682   13.64617311127008
S         4.02983767925254   15.23309737708469   16.97785606735644
S         8.27883323076914   10.10475047623146   16.99663823090292
O         6.63000637630053   14.54122803966678   13.13914659636573
O         6.53084939097929   16.55404313502635   14.08113060570176
O         5.32216236713454   10.62522098339393   13.38708035063522
O         5.50876486727604    8.63793182223186   14.36284662348981
O         4.62707167256344   12.47777537482686   11.52766452037975
H         3.71984921109270   12.79678945953005   11.50101254385666
H         4.57516340592778   11.53836973226294   11.76493194829080
O         7.53824290672317   12.30371787023961   11.80770273286407
H         7.81567113674660   13.23102853256353   11.83433821633862
H         6.86734321432085   12.26818435541387   11.11225962351296
C         6.09055144527184   15.45805448220223   13.81544862860010
C         4.63677663897437   15.08809399822671   14.37183602236643
H         3.98960493082273   15.06627002599952   13.48579898182671
C         4.17258133469738   16.12163983911636   15.40262701329270
H         3.20614623790948   16.56360722488960   15.16536723482342
H         4.92427639171062   16.90989116960448   15.49927646590860
C         4.46084341885954   13.72813552771209   16.20324756372354
C         4.51553425819543   12.50900379333889   16.99954329964849
C         4.73999925723688   12.56197781120395   18.37559803988545
H         4.85285784180425   13.51157558077572   18.87574807011812
C         4.82992639519416   11.36803384346130   19.07255212976024
H         5.00956846691940   11.36104258572594   20.13934045851500
C         4.46394573928373   10.12850178797334   17.20745140303349
H         4.36201303818661    9.14008158009340   16.78012412382399
C         4.33943223723250   11.25647427590192   16.40988355350290
H         4.08747572753506   11.16808255444320   15.36362095059422
C         5.92807845300555    9.72614370309647   14.03791789237413
C         7.41807970810874   10.10672929267596   14.45628217519257
H         7.99034654497272   10.08064445330756   13.52025403802428
C         7.96015701286407    9.12602127348347   15.50130246244742
H         8.88956480326991    8.64675174911679   15.19848019367057
H         7.20896930919999    8.36318621326074   15.72244482018437
C         7.78870280949354   11.56858829747049   16.18071190905341
C         7.82000050694924   12.83917320007331   16.89367132552109
C         7.89246999913796   14.04830896496974   16.19959162097699
H         8.00989596205186   14.06422294885740   15.12515129824520
C         7.84843492651955   15.22941001248618   16.92544495307695
H         7.87444717628111   16.18562895835345   16.42028455507878
C         7.75260130138724   14.12323044571587   18.90479897367338
H         7.71209463857331   14.20538004495907   19.98278250807819
C         7.77525879678333   12.88302483700364   18.28734341722439
H         7.74573198612463   11.97027525457462   18.86229447066515
N         4.69514000304665   13.77719548184889   14.94306276633456
N         4.71661361572389   10.18058362038337   18.50381848175123
N         7.42374839862476   11.44591652653265   14.95859892021280
N         7.76643175107081   15.26775262197722   18.24431810786743

