65
CSD_code = NEQWOW | q = 0 | S = 0 | Stoichiometry = C22H26N4O12Zn | MND = 6
Zn       -0.74551295144958    6.95191855851429   16.40233199157331
O        -1.06630513343574    5.91941544031591   14.84170241783179
O         1.82916904295882    3.89067111470720    9.78694661135226
O         3.43494747002833    5.00135319594135   10.69030949794930
O        -0.21192337577873    8.44240763104714   18.06607724536134
H         0.08991260372107    7.78134951553199   18.70258702641053
O         2.69340161791222    5.92524763239236   17.35408202425943
H         1.78983205312322    5.55120218501727   17.37043339554750
O         2.32291668511998    9.94185404472378   15.20090146381743
H         2.99016339483246   10.41869505629280   14.69680208833422
O        -0.03618444624890    5.63940814498061   17.71363022136335
O        -1.88491181101335    1.37044664080903   21.76614056104256
O        -3.78039076203911    2.28880994166424   21.32887732252174
O        -1.73395810988204    8.71739167475823   15.61050968979616
H        -1.85546493762139    9.30407951396497   16.37480484083472
O        -3.14927231242400    9.47333181763451   17.79583325046844
H        -3.34766076916541    9.94059254294876   18.61216573436795
O        -5.78259201385224    6.28185145901647   16.95452699987487
H        -6.41522378731909    6.99703778636244   17.07321163213902
N         2.28990348090535    4.58270843069854   10.67706076158809
N         1.11666362101648    7.46698897116025   15.86167651784576
N        -2.57704318088436    2.17874108634173   21.17623204011145
N        -2.60761485143831    6.68682329917349   17.13362837280455
C        -0.25122928556489    5.63491811614582   13.90755705192799
C        -0.70135362425660    4.81914189036604   12.82403432471181
H        -1.72596304158062    4.48181110885770   12.86203341265202
C         0.10765565407560    4.47788710641891   11.78427518715893
H        -0.24439002136894    3.86720755001228   10.96646768332705
C         1.44059706745636    4.92606376658383   11.76500738879494
C         1.92498048095961    5.70262634459476   12.79912849400930
H         2.95539814349508    6.02721747854710   12.75764047027861
C         1.11310062496977    6.08164312633453   13.86902092047178
C         1.71215042850023    6.89769299897050   14.87731946864458
H         2.78544082666139    7.03383095297894   14.74258710275128
C         1.89938267016292    8.22080015663036   16.81863402257213
C         0.91510031520038    9.13117026606830   17.57790616829438
H         1.44115883924438    9.63390259604653   18.39957481822315
H         0.54083506746889    9.87598328204848   16.87406709657956
C         2.61143231336585    7.23320222214776   17.81346456540142
H         3.63929176076272    7.57258982225155   17.97200790913159
H         2.09366551586653    7.26805621529878   18.78401664129758
C         2.95494642365617    9.13462822456077   16.16347149333622
H         3.40303300265157    9.75436529375537   16.95548725358772
H         3.75588161153614    8.53207402024974   15.71932553634210
C        -0.66979996396897    4.83034762744217   18.47224951649489
C         0.06064623139053    3.84546535314976   19.20069303420246
H         1.12826851843852    3.80470458579046   19.04341519180644
C        -0.54761644841065    2.98752551960396   20.06685431242826
H         0.01288209496586    2.24997862029311   20.62112277414717
C        -1.93871950183059    3.05788464798225   20.25351620506185
C        -2.68881360050753    3.97732998059651   19.54784491407393
H        -3.75911290412978    3.99712985054401   19.69917882938857
C        -2.09129147671891    4.87251779104348   18.65837707802469
C        -2.95857332079760    5.76996039077129   17.96001510208704
H        -4.01826533026177    5.61495609690506   18.17306814835538
C        -3.64725098137873    7.48918773129706   16.51058671646073
C        -3.00935313225251    8.21332547276495   15.30643019177440
H        -2.87018837003540    7.49681340023267   14.49592429836161
H        -3.66908380738881    9.02470174843808   14.97378426317041
C        -4.16459693677688    8.53133280108015   17.52648480018539
H        -5.04102511259147    9.04515607801954   17.09979961264479
H        -4.46939316723107    8.00987267073656   18.44139446030385
C        -4.82729776317222    6.62983587250211   15.98411647409489
H        -5.29807590120016    7.15861095347385   15.14738848247314
H        -4.41500542648062    5.68982458447072   15.60845687777814

