61
CSD_code = NEQWUC | q = 0 | S = 0 | Stoichiometry = C22H28N2NiO8 | MND = 6
Ni        0.77547423379579    4.10318935692397   15.10429351981049
O         0.46155993127311    5.23094296636482   16.68180733578727
O         1.11793060702904    2.59652708776146   13.43216900337649
H         1.41235972424591    3.35187859421591   12.88663860333514
O         3.60011020666066    1.27259725264461   16.35463015635583
H         4.23940330707320    0.82440062599327   16.91683061239968
O         4.07420622720341    5.09746828607402   13.76200977910654
H         3.15112416530332    5.43327248828118   13.65370391350060
O         1.44278239552673    5.28863268397613   13.35348616883401
O        -0.19811857266566    2.19234546984023   16.12813579125456
H        -0.42085055637855    1.54434909888775   15.43801965685433
O        -4.20726769101196    4.80004728997205   14.96288948256182
H        -4.76609722638739    4.03561377207241   14.79022020212083
O        -1.61574492526696    1.63897223021964   13.85808578207221
H        -0.85230320104210    2.09649601119299   13.46847900994399
N         2.54563704570970    3.78309554716389   15.51489368847439
N        -1.01160955268345    4.42580258471829   14.63437618283015
C         1.36431207861733    5.69356441999923   17.45555644075084
C         0.98499889390483    6.55603934349954   18.52056155357732
H        -0.06820123559248    6.76625735760615   18.63352228846578
C         1.91179154380018    7.11909700298160   19.35231897353692
H         1.58906239618188    7.78111680697968   20.14365990518933
C         3.27670164343460    6.85341676445458   19.19093161915420
H         3.99755317194837    7.30938738168839   19.85217431185579
C         3.68066019105366    6.01019003170860   18.19150776348177
H         4.73219439239580    5.79341296394911   18.06041376334580
C         2.75695627144058    5.40476644841726   17.31896072120021
C         3.23773302338965    4.49159784532155   16.34359559280466
H         4.32091993890376    4.38367109355649   16.34866838214169
C         3.26798984577394    2.89374587254771   14.60878279844700
C         2.26130708602745    1.93922502439215   13.93761895318307
H         2.76517614828945    1.39065758841387   13.12882918737774
H         1.90818304352726    1.23184331232689   14.69087683165780
C         4.27771943228518    1.99689999343073   15.35873013123226
H         4.73028618672716    1.31253776640327   14.62343627490645
H         5.08251267256053    2.60529889377245   15.78783359400700
C         4.03576108049998    3.73373539466887   13.51691838306505
H         5.07529814048117    3.39237588411704   13.47837446018393
H         3.58160158047219    3.53088427547730   12.53488795486984
C         0.71140819902271    6.20529544477820   12.83450641178991
C         1.30002542446995    7.17815731735903   11.98629125388115
H         2.37072394607448    7.13216249565332   11.84587625509388
C         0.55251689645309    8.14870536463151   11.37923836612525
H         1.03361790384283    8.88021703531956   10.74527395642996
C        -0.83316593332081    8.20364605521372   11.56746605537924
H        -1.41461481269058    8.97098871528973   11.07972736186382
C        -1.43745091759353    7.27964708573303   12.37603159641689
H        -2.50695807620574    7.31928765878055   12.53372700062020
C        -0.70327382516534    6.27197227043399   13.03385407658653
C        -1.43470897720097    5.36614008988750   13.85109003820980
H        -2.51300691771665    5.51617033213468   13.78201725324140
C        -2.03282608985317    3.60563123185001   15.29278552080823
C        -1.39952748681761    2.83467552920922   16.47612220350216
H        -1.14943297718441    3.54253247571146   17.26955656451254
H        -2.12617390824768    2.10120196367700   16.85346956321496
C        -3.19359405108836    4.45494894622954   15.87581697296892
H        -3.62188117056475    3.91896924796867   16.73144835629373
H        -2.77532886723691    5.39808279497479   16.23590399707134
C        -2.57108256219930    2.58796260374272   14.25308973151511
H        -3.38979505797931    2.00989067432879   14.69457577176641
H        -2.95178438330464    3.13616185507743   13.37920291965003

