80
CSD_code = NEQXUC | q = 0 | S = 0 | Stoichiometry = C34H37BN6SZn | MND = 4
Zn        1.56676073659870    6.41755136400555    3.66352480476914
N        -1.22949090340235    7.03962888292976    3.68641261839383
N        -0.39507529451323    6.17356837144033    3.09256390475425
N         0.03220014148414    7.59745165478149    5.76493003337339
N         1.17535385877512    6.91657556659262    5.60853126366719
N         0.34156272605454    8.98640046688619    3.71814329202150
N         1.42700359918732    8.40842758373700    3.17749628724987
S         3.11473072588305    4.84512276099086    3.10064900429570
B        -0.68851260802049    8.19412862355740    4.54238071879222
H        -1.56844024873037    8.89714886191456    4.88856154387448
C        -1.12811406611500    5.28728381721477    2.41815825324589
C        -2.48246840498390    5.59045763148171    2.59655281467665
H        -3.32356411658289    5.07766389267325    2.17672522913344
C        -2.50409777760276    6.71432400828376    3.40144609512951
C        -3.68718985257520    7.46753034599434    3.89310065303728
H        -3.65817953840099    8.49848906713277    3.54557253763896
H        -3.71360080169878    7.47879252357601    4.98107598660350
H        -4.59455090909043    6.99728845006627    3.52407374429731
C        -0.53418305977950    4.21259721540271    1.63266294567891
C        -1.12088649431581    2.94866909581269    1.61722918699713
H        -2.02030991483064    2.77213808808075    2.18954154671872
C        -0.53929960474439    1.91983996558550    0.90032683817924
H        -0.99429999059771    0.93976465457451    0.90236786977433
C         0.62974135500720    2.14092291816215    0.18996763769539
H         1.08777792802463    1.33200287703256   -0.36021806183218
C         1.20669824624553    3.39982428968835    0.18421334577800
H         2.11607108392701    3.57789612861286   -0.36923115423240
C         0.62669992212951    4.43278905557330    0.89590340182100
H         1.06507254668408    5.41924663568582    0.87677600885197
C         1.62323696573812    6.56729269685554    6.81382058553819
C         0.72174319561035    7.02681400844599    7.78037376774720
H         0.79699210833933    6.91872710239159    8.84309158424961
C        -0.27014469412204    7.68316835893800    7.07344926687134
C        -1.47668898494026    8.36924720665234    7.60429777270981
H        -2.38278697485660    7.91559240926353    7.20652003914386
H        -1.47591638443869    9.42139151521226    7.32562021229484
H        -1.49104187770541    8.29189228094964    8.68806250682536
C         2.88649889909424    5.86214420472653    6.99062214254705
C         3.01830278295587    4.87713364753649    7.96639586174204
H         2.17152548094969    4.62869016379265    8.58982456892109
C         4.21623099251241    4.20409463521776    8.11833499871403
H         4.30818615197555    3.43421926191487    8.87088477924914
C         5.29388420768828    4.50863314572064    7.30231705543442
H         6.22640150613754    3.97576566025742    7.41840921050949
C         5.17392409240426    5.49653834038682    6.33844830574859
H         6.00975238280645    5.73478528198999    5.69819108498669
C         3.97931034542504    6.17486265838325    6.18384641218223
H         3.88993951138022    6.95264073760501    5.43829177057237
C         2.14348129871716    9.35449777996038    2.56825539275273
C         1.48845693209607   10.58335590275707    2.72099287925793
H         1.78828832200164   11.53580579305295    2.33474193102621
C         0.34964685048874   10.30641404366131    3.45183051874683
C        -0.70397063847139   11.25776306571043    3.89241511917751
H        -1.67616505940592   10.96560813887119    3.50010952259750
H        -0.46386643262329   12.25417321735315    3.53135699810456
H        -0.77021173961859   11.28376441588523    4.97860040710522
C         3.40148358123161    9.08756770183973    1.88398939338127
C         4.36213590803881   10.09347298742166    1.77931171746074
H         4.17198279179550   11.06173824427882    2.21831705785140
C         5.56189233921731    9.85204756127354    1.13803477084552
H         6.29950955018748   10.63849614691030    1.06640782874180
C         5.82276340736745    8.60468351729961    0.59435478863738
H         6.76376852493117    8.41703665312679    0.09839923836820
C         4.87306957331793    7.60125508116081    0.68992725555429
H         5.06752712318853    6.62480837934545    0.27357393825658
C         3.66878859974076    7.84088255586209    1.32353196309253
H         2.92904970544984    7.05625588890942    1.37884954966409
C         1.34546902894490    3.20699435769823    4.49388208670003
H         1.21108036724900    2.38458440308275    5.19731286472122
H         0.86042202802831    2.94594898609077    3.55561738685078
H         0.86002825467169    4.09185099172005    4.90774225175004
C         2.82606724419671    3.45776035262355    4.26801576118374
H         3.30214724704085    3.74018837467132    5.21100716723053
C         3.51325376696796    2.21461191939422    3.70631347042055
H         3.23289769935256    1.35384525634661    4.32093201220346
H         3.14603315352711    2.04317011153574    2.69194054864962
C         5.02879034796090    2.35628394402307    3.68691968526433
H         5.49090504753238    1.47005858680775    3.25790438274346
H         5.40852116714716    2.49508932783390    4.69743260805467
H         5.30629501863872    3.22282819965806    3.09273922739305

