52
CSD_code = NEQYIS | q = 0 | S = 0 | Stoichiometry = C15H28N4S4Zn | MND = 5
Zn        7.95557734475485    3.07495230177415    8.13843054497288
S         7.47361577922845    2.51873168165014    5.76978191592908
S        10.11370879100590    3.25450088028517    6.83925230929929
S         6.04251466912736    2.41354319739148    9.57310211667671
S         8.71545403845718    3.15772009451889   10.54344163606988
N         9.63231785823528    2.81772241153740    4.28550475876071
N         6.72151994973659    2.46297075308143   12.12364848107894
N         7.63552373144697    5.17023472557747    8.06956136929783
N         8.63079559180449    5.97134092066866    8.46870798087816
H         9.49413546923546    5.56754949890350    8.80342365333706
C         9.12295255357350    2.86104837915707    5.51527480969773
C         8.81944167015029    2.45204681333095    3.14270431221252
H         8.06622471568813    1.73098274232664    3.46864339837534
H         9.47033464353986    1.97492472890969    2.40671061878509
C         8.12895488573271    3.66912124922834    2.53473092599407
H         7.46316304881229    4.11655437087740    3.26767900365898
H         7.54437633508320    3.36816847802640    1.67022742842307
H         8.85951558233994    4.41293887815065    2.22408125437989
C        11.02631529195168    3.12352602451963    4.03149538915007
H        11.35210216022902    3.87863766843599    4.75068603023064
H        11.09952131739879    3.53990313985191    3.02420059495806
C        11.90569525327933    1.88366645033338    4.16227480649870
H        11.84990917469324    1.49995976692312    5.17728604597192
H        12.93854798375749    2.13848100483170    3.94268153059234
H        11.58124209711138    1.10538612913765    3.47512385829911
C         7.12046979345532    2.66656094482660   10.86722623189111
C         5.36004196585873    2.05487071639141   12.40904286030713
H         5.35905759929272    1.53185952193281   13.36781832238995
H         5.04557253440089    1.35799804369192   11.62679142704627
C         4.38615463846312    3.22893902627370   12.44777653942938
H         4.64057313292323    3.92392505653492   13.24352720061945
H         3.37884318040835    2.85865943975155   12.61631815554208
H         4.40744865931021    3.75595161171827   11.49789876286978
C         7.62809215596327    2.68898361138804   13.23212602855042
H         8.62427574425287    2.35484357005568   12.92776530270039
H         7.29281928036289    2.07685957292453   14.07202279625481
C         7.70280426197873    4.15595892916452   13.64582882279874
H         8.02010100395922    4.76001401456093   12.80024783590620
H         8.42851540292340    4.27032633953992   14.44620728624079
H         6.73823244932702    4.51490110965572   13.99438087589435
C         5.36104494057862    5.39679903995973    7.17773543493437
H         5.54531198353851    4.78720865181511    6.29412603776146
H         4.66794634738305    6.19483812099987    6.92817101642308
H         4.91303974851429    4.74844158989956    7.92941562981578
C         6.63762754918629    5.95526548890096    7.68473246922105
C         7.01663559193403    7.29492937072938    7.84636029377946
H         6.42766522801158    8.16039780836265    7.62258669254055
C         8.30230418001678    7.26844383287693    8.35137789282221
C         9.23160172099307    8.36090802051945    8.73084869130065
H         9.44142150096836    8.32787008494504    9.79982272498139
H         8.79160688439132    9.32429482304318    8.49002347466662
H        10.17633258522612    8.25963937010741    8.19796641980924

