48
CSD_code = NEQYOA | q = 0 | S = 0 | Stoichiometry = C18H23Cl2NO3Ti | MND = 6
Ti        1.12663277871446    5.17467111141211    0.92423611215844
Cl        1.40888520593155    3.00522484851473    0.54209170643522
Cl        0.18642542309483    4.96841710908756    2.93278181251940
N         0.98482173761185    7.24122625278542    1.05230639866506
O         2.75378759184947    5.42770882588485    1.67010706143037
O        -0.37709505848465    5.34885125304593    0.09933926760684
C         4.26338092795736    5.76039105178878    3.47690495879857
H         3.83309860837404    5.07799091832718    4.21066461625131
H         4.74721152207425    6.58128653445998    3.99624787247974
H         4.99270953573037    5.20191713706532    2.89223357243568
C         3.15149576144906    6.24155478189224    2.58093176803522
C         2.61065401786755    7.49779229861884    2.74364823104721
H         3.00951456719947    8.13629300170391    3.51536839939143
C         1.54726617494385    7.99591060796958    1.95052983131481
C         1.11656211399301    9.42082996093984    2.19911220858767
H         1.07868515201615    9.98887095653228    1.27119525731798
H         1.80377989734083    9.91006641345328    2.88258254514316
H         0.12376386856521    9.42860100434218    2.64889660269414
C        -0.09712291331816    7.70304669482690    0.22959208319288
H        -0.62495444157889    8.57109985347599    0.65168072818262
C        -1.09299820067556    6.51436717244266    0.02440038082146
H        -1.87583148615177    6.51006006581677    0.80576494928561
C        -1.68012851039769    6.74053945169831   -1.38995413528509
H        -1.92463429924296    5.78609683930231   -1.85819196041561
H        -2.58530743353841    7.35001492805652   -1.34011962935639
C        -0.57839153686898    7.46725092749516   -2.09953123143510
C        -0.37752832741346    7.63132555902950   -3.45679678813756
H        -1.08330876511153    7.23125611783535   -4.16963882716201
C         0.75630022810446    8.30585280515147   -3.89055979494068
H         0.92726423867298    8.43683426001117   -4.94897244076883
C         1.67758515921351    8.79857995699908   -2.98122342404685
H         2.56227356842207    9.30623533673170   -3.33653761067485
C         1.47326540920297    8.64621155073030   -1.61633347802220
H         2.19478707996395    9.02424153513154   -0.90535382081733
C         0.33625536631991    7.99045407221579   -1.18774259286668
O         2.16319889628127    5.45892301452601   -1.01632395024140
C         3.58330433848445    5.24022246686424   -1.07462893258826
H         3.86547987207146    4.56178321514872   -0.25790423237370
H         4.08024259470562    6.20828398721894   -0.94039615218588
C         3.87156580474903    4.58942436495893   -2.42516321465132
H         4.75567976052039    3.95793457798362   -2.39209933747892
H         4.00083005592488    5.34685794697208   -3.20047572772390
C         2.58099823794797    3.80970413795196   -2.65210912955056
H         2.41788012089077    3.53366296107838   -3.69077770194005
H         2.55856557650897    2.92011842540425   -2.02102851368311
C         1.55326693683637    4.81279048592481   -2.14704503980978
H         1.34440032891006    5.57994764297588   -2.90634519048086
H         0.62128251433714    4.34747557821747   -1.81466350715392

