35
CSD_code = NERHIC | q = 0 | S = 0 | Stoichiometry = C10H16Cl4N4Pt | MND = 6
Pt        5.52994228834016   -0.42450112589097    7.21132096944884
Cl        5.92641349565742   -2.69688624656982    7.20827601896399
Cl        3.67897649316279   -0.74930144996665    8.66156965937703
Cl        6.83465510948728   -0.13616397737930    9.09215798949681
Cl        7.45384669060915   -0.17664919719521    5.84028238258366
N         5.14121496333963    1.63203596081298    7.30617338705589
N         4.81453047521069    2.10682400197386    8.51266192991363
H         4.75348653469631    1.46618954318522    9.29808208574014
N         4.42089169329887   -0.73443686198344    5.46068460484821
N         5.01322678914038   -1.48651295384446    4.52704924226410
H         5.95440626873385   -1.83067458177906    4.69180716151716
C         5.15819899055737    2.65893634465129    6.46130769794140
C         5.47583244135867    2.52745356684799    5.01769218433569
H         6.27922301150445    1.80716264805059    4.87728420214366
H         5.77712263732491    3.49129392048455    4.61726482790226
H         4.60598324170680    2.17848793467146    4.46203059876410
C         4.82683717424653    3.82093908370386    7.16933207605757
H         4.76008479996438    4.81158875113746    6.76982679428062
C         4.61641451739118    3.43188699755502    8.47973742601773
C         4.24619060290892    4.20892827268040    9.68576190065239
H         3.29728233643451    3.85634670127419   10.08706813447439
H         4.15623335692173    5.26243323870939    9.43955742967469
H         5.00362163788124    4.08930655517760   10.45855780855035
C         3.21387425507809   -0.40809903944635    5.00725742716434
C         2.25355461657333    0.43354355884355    5.76317435835048
H         2.29008358509551    0.18240814228275    6.82119003620874
H         1.24741534833419    0.27471879678792    5.38572244050805
H         2.50046757808829    1.48945213828698    5.65666336541665
C         3.04811364062823   -0.97748745383676    3.73857161479475
H         2.18182249217006   -0.89944502899103    3.11494372481840
C         4.21765860734690   -1.66260880439922    3.46324583225092
C         4.62918615074467   -2.46776801659404    2.28949772910586
H         5.60857912225248   -2.15096347137235    1.93623800989952
H         3.90666506232117   -2.35735250088691    1.48668699934599
H         4.69306399149195   -3.52088544697165    2.56042195013091

