65
CSD_code = NERJEZ | q = 0 | S = 0 | Stoichiometry = C27H31Cl2N3PRh | MND = 8
Rh        6.92729371056147    1.04290604108552   -4.17372407659387
Cl        5.86801837339098    2.82854373262420   -5.24909504349123
Cl        8.53492643358173    2.46103242776217   -3.28294339427891
P         5.95908398633988    1.86456480819914   -2.30545547739072
C         6.72434202894059    1.34946814854050   -0.74079415184927
C         6.44201384236461    0.09027779667724   -0.22105430690953
H         5.71421976926489   -0.53708538712858   -0.71856787158703
C         7.07157788297939   -0.34194643852444    0.93118630541603
H         6.84766686455989   -1.31879146815630    1.33585615523851
C         7.99180183803694    0.47803728315307    1.56560362459232
H         8.48559499254715    0.13781839347841    2.46391731804548
C         8.27910563277669    1.72996494410933    1.04677382913892
H         8.99893550476272    2.36625399160056    1.53997570049753
C         7.65206100149463    2.16652386782041   -0.10671766805963
H         7.88260526712454    3.13105107026806   -0.53350133833936
C         4.20596105317455    1.39626105012733   -2.05331662427254
C         3.43994706232837    1.10182417571892   -3.17518940502443
H         3.91201769287047    1.11185526692994   -4.14886379734122
C         2.08939345644392    0.83749188375339   -3.04567135121123
H         1.49635295836690    0.61226700230419   -3.92002428603936
C         1.49543192872886    0.87589339603334   -1.79452274825516
H         0.43845643752495    0.67975223862988   -1.69189601032678
C         2.25444701515786    1.17402738383249   -0.67511680966727
H         1.78996482490132    1.21653379413338    0.29859691167474
C         3.60778500000420    1.43149965331813   -0.79935974193717
H         4.19473716081726    1.66829141735216    0.07701943314166
N         5.98419827548593    3.55219148620550   -2.15480325221641
H         6.11983399560559    4.01963556602287   -3.05172593703683
N         5.04899833081476    4.20020298978679   -1.34851798994401
H         5.23655168573798    4.14457548117649   -0.35559545948374
C         3.72083109505978    4.33887938265205   -1.67256625170716
N         2.92423356700929    4.60837179289680   -0.63976711482295
C         1.64125751781764    4.81755727769902   -0.88137786562101
H         1.04002959279535    5.03377785850161   -0.00722558295712
C         1.07933399358945    4.75933044128505   -2.14301259245484
H         0.02400137810956    4.92803726414014   -2.28659219459543
C         1.91703686470820    4.47754651040354   -3.21649655405750
H         1.52250070591676    4.42383730142406   -4.22065055054249
C         3.26078407431194    4.26912776134498   -2.99331547977986
H         3.93276417625527    4.04510029492787   -3.80757374111634
C         7.39955007773389   -0.09657373517873   -6.00922018919642
C         6.15496762239599   -0.57499636120621   -5.43830326484169
C         6.43842690272686   -1.14281716847597   -4.16355314041951
C         7.82915242114032   -0.91922074120821   -3.89119292049677
C         8.42887803565629   -0.34459813102821   -5.07436287675137
C         7.53690069655579    0.39492731687365   -7.41536026280829
H         6.73626045511401    1.09147186298743   -7.65909938775169
H         7.47665893108974   -0.44901101758024   -8.10567422578675
H         8.48639423754256    0.90308887535214   -7.56437080177278
C         4.87228139365144   -0.68785265667912   -6.19925497648152
H         4.05958986139416   -1.00854014947220   -5.55215691880330
H         4.99130520357659   -1.42087156424008   -6.99938520383969
H         4.60536262338296    0.26428022810841   -6.65598545066411
C         5.48440932747944   -1.95808061749480   -3.34828673493219
H         4.54926363605572   -1.42878740504782   -3.16683162210834
H         5.92535671914006   -2.22871698454935   -2.39267674887476
H         5.25276421946045   -2.87736284389191   -3.88923511951169
C         8.61345920175684   -1.44307832543026   -2.73046304614568
H         9.44181139398411   -0.77597502829813   -2.50146529895344
H         9.02010355324627   -2.42685595978227   -2.97413706227864
H         7.99521121333029   -1.53272186528483   -1.84003609025253
C         9.89756406724167   -0.13381379660822   -5.24944136262445
H        10.12298498577185    0.23874043045029   -6.24514416195872
H        10.42018390843096   -1.07893885061155   -5.09880668490720
H        10.27536234000166    0.58431660621843   -4.52095105666937

