35
CSD_code = NERPUW | q = 0 | S = 0 | Stoichiometry = C10H16Cl4N4Pt | MND = 6
Pt        7.61312346885720    1.76134334564610    2.06075809634604
Cl        8.95587730049789    2.05732142584041    3.91363094674511
Cl        9.50836470227665    1.99760297770280    0.64902988972299
Cl        8.00793957053058   -0.51145389632764    2.05818677398693
Cl        5.79195453776342    1.44168053755736    3.55091373987483
N         6.46733782193890    1.44685735330178    0.33467993585351
N         7.03428804060601    0.68557884122185   -0.60720769840580
H         7.97478174438350    0.33232569919824   -0.45907918878730
N         7.22586652292249    3.81852229214726    2.15533657943262
N         6.91117742421350    4.29500506942155    3.36441626696369
H         6.85540247434056    3.65470927880005    4.15056297022171
C         6.21574373521090    0.51189502533910   -1.65406521621550
C         6.59572582229109   -0.30215705826138   -2.83231570961351
H         5.85411701836283   -0.19305630320870   -3.61836102915487
H         6.66159194444820   -1.35434858412088   -2.55629734592118
H         7.56815673080297    0.00840052131682   -3.21109176657631
C         5.05823394171179    1.20869997914309   -1.35850719910042
H         4.17994539932595    1.29183446535021   -1.96447780166617
C         5.25458618390126    1.78220931565517   -0.09597437487753
C         4.31704755098696    2.63568170249480    0.67517991507846
H         4.38988641521075    2.40557090126897    1.73603965931474
H         3.29930727025175    2.46587117686322    0.33525443591193
H         4.55556686893136    3.69006249250806    0.53833825434293
C         6.70891418900577    5.61943827512516    3.33083066930869
C         6.35266054556561    6.39850828807467    4.53976977575252
H         5.45027975973350    5.99637322089851    4.99770181430539
H         6.18548036350620    7.43927806762674    4.27902815267160
H         7.15586107625357    6.34345569785893    5.27336692794033
C         6.90496394270154    6.00641508086842    2.01765379609589
H         6.83160931979573    6.99593290451167    1.61652913078907
C         7.23153822693586    4.84372842287714    1.30838663961503
C         7.53207532506463    4.71027227496970   -0.13866876078052
H         8.31619863999124    3.97129844277565   -0.28991245811337
H         7.85288200339629    5.66812438425171   -0.53847689291979
H         6.64801411828711    4.38581838129162   -0.68685892814990

