41
CSD_code = NERWUE | q = 0 | S = 0 | Stoichiometry = C19H18AgClN2 | MND = 2
Ag        7.17276056891694    7.47792016877136    4.20345277832097
Cl        8.16984041227603    8.77760035923091    5.72002468935986
N         4.90785361714973    5.98120647666001    2.66350269806415
N         6.83615878199679    5.43306053677839    1.87158547589664
C         6.21555153574668    6.20492506545439    2.75950941287350
C         4.56359828715005    4.94570065466845    1.70117328899069
C         5.93908588021029    4.55527969007237    1.13556012143646
C         3.88826345053025    6.63697125186951    3.42658703673202
C         8.24873444834725    5.39660926837751    1.63672380452616
C         3.90039605577678    3.71159938082159    2.37407288977044
C         3.83233032332810    2.64815126977685    1.31509534164349
C         2.68521157688386    2.04031190100576    0.84425612661758
C         2.78975404941697    1.07141023978438   -0.14266157640502
C         4.02776125478698    0.72014454429059   -0.65280233118774
C         5.18072292088298    1.33213925679647   -0.18393244846660
C         5.07910949743642    2.29426147476908    0.80147720535618
C         6.21910152588027    3.05308507894127    1.41918381153581
C         6.11532191329763    2.88615969239334    2.90987057747562
C         7.12385789280698    2.46605309007245    3.75439222023374
C         6.88096867329176    2.39937482750974    5.11783054473276
C         5.64322222827379    2.75113804844307    5.62760843198703
C         4.62971205535879    3.17485192453097    4.78163291618163
C         4.86892556804848    3.24036773224184    3.42319506925046
H         3.88537607205810    5.34910874435754    0.93964891654785
H         6.02873164335635    4.74185630816860    0.05860782788846
H         4.34055501259216    7.46346643795787    3.97921947969806
H         3.42723181055950    5.95128862476191    4.14111690590155
H         3.11581699109892    7.02924421600919    2.76071897741479
H         8.68208140318375    4.45505426286180    1.98156441404178
H         8.71687850509556    6.21696637667491    2.18538649989156
H         8.45444910279820    5.51342452627998    0.56996987411655
H         2.91922544713502    3.96117116983895    2.77943923467876
H         1.71918347209545    2.31398695787882    1.24278668563427
H         1.89872230310426    0.58814694948716   -0.51410678190727
H         4.09786153711619   -0.03577434957304   -1.42034716654241
H         6.14688007189743    1.05753915621310   -0.58151392893411
H         7.18785768196933    2.74881033858430    1.02139719448882
H         8.09022789141650    2.18908193741667    3.35778840519884
H         7.66420496334566    2.07354636040512    5.78509575820163
H         5.46515122804467    2.69850940150112    6.69080438538956
H         3.66322234533905    3.44725064791554    5.18108523336479

