43
CSD_code = NERWUD | q = 0 | S = 0 | Stoichiometry = C16H22ClN3Pd | MND = 4
Pd        2.60759091027465    5.26662299742958    1.01981335272359
Cl        3.53874482496547    3.94842514070705    2.73473534143463
N         1.83305463111320    3.66858677241009   -0.01575834074141
N         3.37440654837356    6.79315376473269    1.97136032623992
N         5.29349974405471    9.35972882382730    4.63623747006612
C         1.93983367936072    6.31489020957316   -0.55390225021361
C         1.18902757561383    5.53649842149401   -1.44799286335778
C         0.76089506430242    6.04008556523858   -2.66595535838116
H         0.18246179136179    5.41754319029363   -3.33620067166291
C         1.07348830480338    7.34108548664400   -3.02217845621849
H         0.74169238601987    7.73731655763145   -3.97121801272286
C         1.81274358678106    8.12727096843345   -2.15722829311963
H         2.05818729943891    9.14442382879972   -2.43125040237811
C         2.24563110315838    7.61724082217081   -0.94115537978746
H         2.82470956430322    8.25999549816998   -0.28599505430984
C         0.83330717076084    4.14417503726496   -0.98990361374411
H        -0.14241729799961    4.18245712804161   -0.48913215335804
H         0.75219470961525    3.43910153230634   -1.83151173220333
C         3.01633370234239    3.15997039613140   -0.71582509619561
H         2.76827622536669    2.26471606340652   -1.30384862339396
H         3.78550587545164    2.90069878799979    0.01999591347991
H         3.40418204517520    3.93110379848576   -1.39067818951614
C         1.26779200891072    2.61218884897742    0.82192371360204
H         0.92798067665125    1.76559294880063    0.20999372400346
H         0.42306920694013    3.00832252238730    1.39086602599664
H         2.02481071521918    2.26835405464763    1.52876357326606
C         2.70071506866510    7.39626410009534    2.95122844955970
H         1.63699187363568    7.17356580553954    3.01132612113007
C         3.28951512186016    8.25217614153066    3.85236168950715
H         2.67786122265474    8.69351552888284    4.62000089367559
C         4.66975642685133    8.52154177286689    3.77185244290606
C         5.35851298873772    7.87277541512077    2.72811434084984
H         6.41670126779553    8.00920280184802    2.58737789797138
C         4.68271893047706    7.03277475065386    1.87492065677091
H         5.20840593636087    6.51646114991285    1.07350530967286
C         4.55787416332908    9.97039604174618    5.71732960093104
H         4.14967445013204    9.21718942126848    6.39821578407603
H         3.73487074157888   10.57743614944644    5.33118530504760
H         5.21867314941219   10.62058204646561    6.28449897498396
C         6.72353523816149    9.54327129734974    4.56790657946486
H         7.25223135232740    8.59472412950616    4.70034898256261
H         7.04062675014960   10.22231802538971    5.35490452984538
H         7.01493326552252    9.97655625638539    3.60716749154304

