88
CSD_code = NERXIU | q = -1 | S = 0 | Stoichiometry = C38H41ClN3NiO4(1-) | MND = 4
N         0.37149398294973    0.28502368040934    2.31659292199074
C        -0.44401829128407    1.23724708615401    1.86650261855058
C        -1.50872330479292    0.93192278161792    1.03099721819996
H        -2.14691359300404    1.73121298242809    0.68767362478451
C        -1.71232949116493   -0.39168938642766    0.66842211148529
H        -2.53321890050169   -0.65860889087862    0.01742338593510
C        -0.85440512058327   -1.37013642551424    1.14941700859422
H        -0.96880090692297   -2.41377641735315    0.90076991308463
C         0.19068016765431   -0.99107420661193    1.97961213693914
C         1.21482641996022   -1.90819204515692    2.59128998896618
O         1.16477910089489   -3.13266566160416    2.46623833932544
N         2.10075231238644   -1.18739036480014    3.27972457891265
C         3.19586886403573   -1.78569634144757    3.92274371837328
C         4.32422605757580   -2.19170874838952    3.19452192235881
C         5.40069387747048   -2.72919610126968    3.88480917126435
H         6.27423056282507   -3.05876323556687    3.34142948657773
C         5.38001366469659   -2.85039587868402    5.26047688785290
H         6.23145861007857   -3.26845804341954    5.78056625730740
C         4.27126939625772   -2.43187453991452    5.97432383309280
H         4.27197911797838   -2.52984495345224    7.04982873449595
C         3.17320095263793   -1.89482102796363    5.32418432060243
C         1.93389205185946   -1.44648769918464    6.06174396821250
H         1.51117458623583   -0.59607130758817    5.49544561082070
C         2.20402624114117   -0.96335997588687    7.48383535678522
H         2.51999290761789   -1.78096531101771    8.12967671985656
H         1.29471455540491   -0.53857820961435    7.90512713266765
H         2.97201246230144   -0.19407008136778    7.48181236646642
C         0.90898143784746   -2.58496966556034    6.06443849176898
H         0.72330715286047   -2.93491274951178    5.05237943928244
H        -0.03319728967533   -2.25251964108959    6.49819520813431
H         1.28505406739790   -3.42358457980459    6.64980114831847
C         4.35484987644514   -2.06434372896575    1.69009245168658
H         3.59854312587684   -1.32676700935328    1.40050589325691
C         5.70192952527024   -1.56392074520331    1.16792469526763
H         5.99155711112307   -0.65486803301111    1.68837524003203
H         5.62140585454815   -1.34093523599417    0.10539081172592
H         6.48501427191601   -2.30900148585943    1.29750650474553
C         3.99944173284035   -3.41163873401338    1.05515780746079
H         4.73857371449663   -4.16394734369764    1.32852667464905
H         3.97354986701026   -3.32599483574955   -0.03037452630313
H         3.02431978387177   -3.74109994335906    1.40529847635202
C        -0.07524950071656    2.60395840609025    2.37478283955915
O        -0.74555184650412    3.60650165068468    2.12548602755311
N         1.02259630790958    2.51800300330673    3.13036032243003
C         1.56282578380586    3.67238466288617    3.72144401429914
C         2.32231384984542    4.57499072122961    2.96460450150122
C         2.80188396575624    5.71967972684693    3.58368248098586
H         3.36804836071506    6.44095369113197    3.01169895394956
C         2.56622336204446    5.95734017607834    4.92410363692575
H         2.94193777452413    6.85997356779184    5.38821515281045
C         1.85973784351381    5.03611331178245    5.67640533679812
H         1.69698444631146    5.22863463911247    6.72676517631001
C         1.35561852945299    3.88575965008621    5.09386773663793
C         0.56429952391113    2.86286386553333    5.87377115691052
H         0.72897543148175    1.88645510927005    5.38235840492932
C         1.01382929777249    2.72686883747101    7.32586142573483
H         2.08542913012252    2.54992836136133    7.36858650747126
H         0.50464932894203    1.88463667127425    7.79088366820279
H         0.77761861476584    3.61941910440171    7.90278202901413
C        -0.92709950567231    3.20178028355146    5.79446071094182
H        -1.12518832127780    4.14125369463760    6.30956489515344
H        -1.52465863194416    2.41782790149828    6.25777646951366
H        -1.23702100442884    3.31144875900491    4.75841456015364
C         2.60662169794754    4.30034588724393    1.50737387766751
H         2.40402598852769    3.23992176951417    1.32179391101113
C         4.07408037208289    4.54676264237819    1.15517600661331
H         4.32422044557532    5.60602690067884    1.18936244582206
H         4.27712508782064    4.18133177555925    0.14979973066052
H         4.71488451548773    4.01154702275529    1.85216068532386
C         1.68117163033423    5.14160643815528    0.62559789545961
H         0.64433859342584    4.94540037290559    0.88759147913681
H         1.83144376766649    4.90018355397158   -0.42581684038132
H         1.87964753098984    6.20289827642669    0.77156305325344
O         3.30603928709152    1.15312036304945    4.38914167721018
C         4.15347322577386    1.18992050308061    3.45264446255633
O         3.83433902786111    1.20403964394040    2.25123507721070
C         5.60495732730645    1.17415654516174    3.83407208550675
C         5.97436915928520    0.63983315476154    5.06140469047485
H         5.20902114985881    0.29030537879993    5.73583123843068
C         7.31656501010261    0.54564430385122    5.37270516611348
C         8.29556375002091    0.98712547597672    4.49743414338629
H         9.33823503988298    0.90352308407842    4.76475760972851
C         7.91435730273189    1.52757796383351    3.28013441741369
H         8.67238626901041    1.87283193120657    2.59166606061901
C         6.57594645784913    1.61336609787844    2.94281152499388
H         6.26205030914741    2.01041114903131    1.98917663683994
Cl        7.79149854182002   -0.14719379830894    6.88550592485028
Ni        1.77952925648062    0.74015982274994    3.28189338243322

