64
CSD_code = NERXAL | q = 0 | S = 0 | Stoichiometry = C32H26N3PPdS | MND = 4
Pd        0.06552029269998    4.25037075461395    4.27499607151725
S         1.72281148177712    4.64636081657557    2.63029451896116
P         1.04751036550487    2.52160164094981    5.27712443211607
N        -0.90064675031658    5.66561353170204    3.35632070936599
N        -0.40177419674221    6.29041573461595    2.28160419328195
N         1.37694090640553    6.58227761906622    0.88713939903395
H         0.80654660084715    7.19741439244613    0.33268341435733
H         2.19819148807774    6.17661300226862    0.47353019081599
C        -1.54847705880779    4.25370213162119    5.47068368457323
C        -1.84713950195402    3.61246967174275    6.66233957122392
H        -1.11087548252358    2.97545399823710    7.14312539524188
C        -3.08546833220214    3.77206034461994    7.27341145522695
H        -3.29331218488824    3.26047379743401    8.20295487564686
C        -4.04749088771144    4.58543846678797    6.70147349462541
H        -5.00756597062036    4.71158458606349    7.18111831598975
C        -3.77517257476431    5.24840542448515    5.51846202418332
H        -4.51539024261324    5.90362635147467    5.08129688175018
C        -2.53815031573053    5.07801308649798    4.89851405422014
C        -2.15060184800163    5.78208473019640    3.68195544849886
C        -3.09814018100949    6.59900167509085    2.90509722595999
C        -4.30954531426497    6.05237564125965    2.48617541217940
H        -4.54070888696808    5.02423080926385    2.72628108155947
C        -5.19811021624682    6.81080542105269    1.74711756899625
H        -6.13301864271895    6.37698941061403    1.42237298580815
C        -4.89191374841982    8.12194157721823    1.42206689282530
H        -5.58921817166415    8.71398906683356    0.84732127808155
C        -3.68765684159680    8.66979239847042    1.83223483790662
H        -3.44530860822268    9.69175551993219    1.57865972406172
C        -2.79192754299384    7.91395882237048    2.56497161498909
H        -1.85324411089992    8.33934187571534    2.88502425429015
C         0.79338505244526    5.91953657322586    1.91322473800198
C        -0.15743649078866    1.16390345661722    5.39008588919346
C        -1.07990520066547    1.15455462439318    4.34409888502167
H        -1.01666212243637    1.93748889618052    3.57633846124398
C        -2.06081844167847    0.18386027431870    4.29027489830286
H        -2.77456510210124    0.17511551995975    3.47981341586745
C        -2.13339696098237   -0.77497739208700    5.28986898319007
H        -2.90451091100865   -1.53036395660310    5.25625153228022
C        -1.22670379701604   -0.76082658986631    6.33637402980609
H        -1.29363765959151   -1.50381290305604    7.11779972536387
C        -0.23468114749417    0.20417114640298    6.38932689823986
H         0.46326556255034    0.21915584900628    7.21353910543434
C         2.51182452923654    1.70918750880605    4.56109591527351
C         3.66817091575993    2.48188912057484    4.47646295529211
H         3.64587191075962    3.50340213852538    4.83752734095103
C         4.81588361383324    1.95365011035648    3.92086725330328
H         5.71017534266754    2.55542489269663    3.85352951615384
C         4.81578840212741    0.65216680110426    3.44143589101912
H         5.71229277843264    0.23873440984465    3.00316973609740
C         3.66560200969504   -0.11461801630317    3.51490361824494
H         3.66458817679423   -1.12577931018864    3.13400669159857
C         2.51078932166608    0.40965734319768    4.07068664627817
H         1.61092367001144   -0.18805452034873    4.12057544496016
C         1.68481875909743    2.94571206173164    6.92512982946747
C         2.40726009652620    2.06951653311120    7.72777154657933
H         2.60796425704700    1.06365655941120    7.38489038355660
C         2.88775981323869    2.49947334362873    8.95160219135589
H         3.44255101288170    1.81869292718524    9.58085444570513
C         2.66899631060149    3.80358891479580    9.36728287535672
H         3.04850040251082    4.13307103586856   10.32327177339926
C         1.98097532533554    4.68993932527885    8.55349532602669
H         1.83103746117924    5.71111370128764    8.87128679726268
C         1.49151816038919    4.26372546349324    7.33255385122344
H         0.95221142626507    4.94868185727423    6.66655240143712

