33
CSD_code = NERZAL | q = 0 | S = 0 | Stoichiometry = C8H18N3S3V | MND = 5
V        -1.41004451963335    0.04996155054313    7.52539887426698
S        -2.00984366693458    2.09082886611286    8.22745795556919
S        -2.23592130144079   -1.82145160860741    8.44081265818752
S         0.36912498681595   -0.13220848999936    6.17421201479542
N        -0.02945269959014    0.06087654161615    9.12056423260749
N        -2.44226531732291    0.03338370899107    6.28950650745564
N        -3.24188315929416    0.01149116872710    5.31627705588303
C        -0.59888222699371    0.84260793830814   10.21881700114233
C        -1.05897792184613    2.22225757683421    9.77440113544086
C         0.21140882523013   -1.31525175576160    9.55658001722726
C        -1.07894822165027   -2.07404109454425    9.82400344764982
C         1.21979373739826    0.66806744274453    8.65728052446167
C         1.73271092507883    0.03228935197557    7.37468534236800
C        -3.65331944724604    1.24299207983513    4.67352214268357
C        -3.57492181054851   -1.23972626433812    4.66661704742795
H        -1.48198116078016    0.31187631825370   10.58926681241984
H         0.12793558888350    0.93542000296847   11.04807709194261
H        -0.22996125791006    2.91540357673388    9.61108593948122
H        -1.71865816622905    2.65529266089514   10.52933355879117
H         0.85443544251031   -1.33023258324007   10.45706369782830
H         0.73226226649088   -1.84125435587024    8.75007815911147
H        -1.57154119380509   -1.76576697533634   10.74933728381995
H        -0.87476113163139   -3.14480955678753    9.88918618566271
H         1.99404896269147    0.61166160421710    9.44552080434865
H         1.02380713293939    1.72242730852375    8.43773337154076
H         2.17229004728641   -0.95522618824505    7.53363092412577
H         2.49106004013595    0.67207970828883    6.91944212821605
H        -3.33982148191526    2.07385479303083    5.30774725319000
H        -4.73858859626831    1.25795080812561    4.55826029625810
H        -3.18479014678656    1.33936486252459    3.68991783141996
H        -3.20900616749052   -2.05231624958244    5.29614764231486
H        -3.10167592429776   -1.30048570660349    3.68259838664487
H        -4.65693243584536   -1.32331704033402    4.55203667571719

