66
CSD_code = NESBIW | q = 0 | S = 0 | Stoichiometry = C20H37CrO3P3Si2 | MND = 8
Cr        1.73360521088432    8.11444448425951    5.86375992353877
P         2.00851827608233    5.50754150699443    5.87760702993246
P         2.40184807272541    6.63556250096330    4.10550634657711
P        -0.45313185544279    7.19290689308186    4.95415361665477
Si        5.05480526410521    5.70800056361745    3.25808692720170
Si        2.35699107183863    3.78925147653431    2.75043965609375
O         4.19700604869804    8.48518033611958    7.50300882439282
O         2.15672339415786   10.98346917604881    5.17267490252074
O         0.66768875965571    9.72232562019238    8.12706166335562
C         0.77045226080483    7.27492843369418    3.71943666850246
C         0.42320521642209    6.20490232233242    6.14856254343665
C         0.53118741926784    8.09812037986604    2.46575748079059
C         1.80140079313660    8.84140654203479    2.04261207384886
C        -0.57459939247905    9.13107980879717    2.70459562917973
C         0.08772823825180    7.15044353354770    1.34115232797191
C        -0.33157971241643    5.75557838172967    7.39187082353279
C        -1.53975053038998    6.65621663340419    7.65874602061358
C        -0.81885851541059    4.31996520303335    7.14894027606383
C         0.58956303800839    5.78502043608134    8.61501698029237
C         3.17350192358624    5.53294917601889    2.84721477107455
C         2.69692891816363    3.15245557542310    0.98673392539082
C         3.11545015557804    2.59601215180098    4.02695095550606
C         0.46831209070392    3.85833567591669    3.01553107781583
C         5.36159443813968    5.37092807376097    5.10428555122889
C         5.50704673995788    7.52607967586947    2.89274787844752
C         6.07198311577840    4.54194669667651    2.14999016683315
C         3.27019452690093    8.29045600081566    6.83982047777157
C         1.99442094819498    9.84923456040809    5.34807390336453
C         1.01705501034615    9.04438214577028    7.25502406038312
H         2.11705127444965    9.52661073399314    2.82856023861081
H         1.61190432988976    9.41920305767476    1.13967966130321
H         2.61743634494520    8.15067981970247    1.83713245520480
H        -0.30451777823580    9.79303658054095    3.52800657399075
H        -1.51743778790863    8.63958094837642    2.94605011323949
H        -0.72552322361177    9.73401299905123    1.81125839115229
H        -0.82447751735308    6.63045358566239    1.62921114483341
H         0.85615338226002    6.40920004529268    1.13186800966943
H        -0.10913388331838    7.71406766968893    0.43144586213281
H        -2.26308857944597    6.58789276492010    6.84530526470791
H        -1.22749597834371    7.69437042348580    7.76480674783130
H        -2.03614950260427    6.35168458724490    8.57788764830407
H        -1.46230320782535    4.28275271979900    6.27032167519160
H        -1.38267023698180    3.95961871445682    8.00647726812893
H         0.02935634488086    3.65538895744215    6.98412044831387
H         1.43466608923514    5.11022185179112    8.47696741593805
H         0.04638661930693    5.47355756006996    9.50464467018196
H         0.97322511216851    6.79287985703648    8.77445485982438
H         3.02492381724511    6.03043073175933    1.88570905802689
H         2.26816744770599    3.80062952801303    0.22906237462519
H         2.26466891783368    2.16700722687889    0.85382208375502
H         3.75979493447109    3.07390368288360    0.78941970402140
H         2.92357517150210    2.92272612043821    5.04529904831895
H         4.18901839100509    2.50008358944184    3.90374266485677
H         2.68289693457039    1.60643900163811    3.91495318283963
H         0.20002590860259    4.51669533445251    3.83911503850535
H         0.08231036616630    2.87175393281716    3.25423313846511
H        -0.05583519541492    4.20742096039079    2.13145539346012
H         4.95231608399751    4.41822566545180    5.42501099585231
H         4.90559163341669    6.14901099558285    5.71412430564023
H         6.42371906026488    5.36456213863154    5.32911456587834
H         4.87628302903032    8.20399919470944    3.46549347536485
H         5.39438195430267    7.77472923256063    1.84102409590035
H         6.53683681113250    7.73448258592748    3.16475306691953
H         5.86130856614146    3.49737403871965    2.34980826538644
H         7.13022398794103    4.70171834868230    2.32278652832232
H         5.88281945333101    4.72367085001213    1.09741208297386

