49
CSD_code = NESBUJ | q = 1 | S = 0 | Stoichiometry = C24H18ClN4NiO(1+) | MND = 6
C         7.58768515067411   13.34354272810015    9.93941796404041
H         8.38408462376839   14.06816028663438    9.82709536784444
C         6.49010286327366   13.62258717594541   10.76095021887303
H         6.44122817751382   14.55924146066145   11.29249406135284
C         5.48793997799656   12.69014368763499   10.86781756311476
H         4.61998347051660   12.86864532827713   11.48486321651688
C         5.59904028520650   11.48029492271374   10.16102930219179
C         6.75629737838701   11.28851175966644    9.37519695484587
C         6.93022102699636   10.05374932716530    8.65881331009410
C         4.60475649718848   10.46232826761080   10.21110508417290
H         3.72956163258781   10.63261814378373   10.81949817829509
C         4.75401003408577    9.31077525685425    9.51476345328209
H         3.99960475928053    8.53988352771364    9.55010160867652
C         5.91620510031356    9.07085154878678    8.72610936324867
C         6.10813561202319    7.87477146768289    8.01636592848797
H         5.35472270108690    7.10298100754456    8.05703503341525
C         7.26142133976025    7.70589926994149    7.28992343685422
H         7.44607297858463    6.80153935837495    6.73327552346150
C         8.21929400353507    8.71996622800813    7.29307271517549
H         9.14398436817956    8.59390141946018    6.74489115059897
C         8.04154183762458   11.86337886609084    5.48190201975453
H         7.41942196817744   10.98453651000385    5.58956148920963
C         7.86535166113172   12.70400571834764    4.37881899075270
H         7.11079401673494   12.46567268741428    3.64653518875688
C         8.65707767691102   13.81927007179346    4.24473649560122
H         8.54577754712803   14.48700285818574    3.40387123403760
C         9.62742844949444   14.08422624973704    5.22493700549550
C         9.72779362433875   13.17615316929695    6.30002540321802
C        10.69700565504898   13.39053368821587    7.32685173340489
C        10.50355249996025   15.20722721163059    5.18548279994619
H        10.41466519906453   15.89285435738967    4.35679473111388
C        11.42485864728281   15.40998635748198    6.15873476735671
H        12.08711241928061   16.26141184349629    6.12245903993632
C        11.55146457837484   14.51030372469721    7.25727571494559
C        12.49207575595601   14.67391668208723    8.28829999278935
H        13.16796840869891   15.51547324858000    8.26993919459631
C        12.53040613936034   13.74730699666097    9.30097168929681
H        13.23855049972917   13.83345059739483   10.10921719552934
C        11.64158116140792   12.66716916058317    9.28651124770546
H        11.66705457525667   11.92798327976766   10.07707978970256
Cl       10.10234253594470   10.00575142834321    9.75560882471496
H        11.35830727775989    9.44415305030037    6.22040633267295
H        11.72604778119468    9.70614396344111    7.70465540126221
N        10.75024934555539   12.48982562334633    8.33185967828839
N         8.94190043341382   12.08676722313225    6.41682996306800
N         7.72026848430452   12.22274052466893    9.26799808470394
N         8.06501713370272    9.85173718867200    7.95387261414447
Ni        9.43200762266400   11.12592213204550    8.09913780990080
O        11.34412508354273   10.10960341462660    6.91270613355769

