63
CSD_code = NESCAR | q = 0 | S = 0 | Stoichiometry = C26H20F6N8S2Zn | MND = 4
Zn       12.78629705739335    6.74714879589061    5.57490727455046
S        12.07869225957608    4.68359325641927    4.71216110026467
F        15.27520964128592   -2.41602009433024    8.80549031029680
F        17.15253394395580   -1.42714528246162    8.46670216586210
F        16.35753232081145   -2.76560092523344    6.98153244399207
N        16.17877194575097    5.27093793244039    7.73858347082177
H        16.03336484086397    4.31682740047600    7.42167154208417
N        14.16207302775507    5.71834677488394    6.67344127660257
N        14.14982029985836    4.35812862188645    6.46190739811611
N        13.24432497169930    2.50062585917899    5.45279173603472
H        12.63821617587597    2.23582112382611    4.68721195710738
C        17.26920992628334    5.64550005147963    8.44037696258250
H        17.97664115061310    4.86683103955867    8.68142109481981
C        17.43940626969596    6.93998505461331    8.81074922560035
H        18.30586211673145    7.24330421448773    9.37204915179354
C        16.45267486372562    7.89060012994089    8.43905759790885
H        16.58237255652708    8.92233107831199    8.72610971816155
C        15.35922075767846    7.50881223397037    7.73183973348478
H        14.59667736766448    8.20973615128487    7.43227116988582
C        15.19563364301620    6.14668815045244    7.35189341191588
C        13.27807873016353    3.85722760592167    5.66197494152019
C        13.93332877703432    1.48411174424059    6.06623500878503
C        14.64003898083058    1.65028173273001    7.26086987896371
H        14.62825319755518    2.61313083490233    7.74161564701062
C        15.31108860235500    0.58926479524426    7.82944493559085
H        15.85352824836314    0.72282948645393    8.75331959051122
C        15.29399172155331   -0.65879841219940    7.21733633280259
C        14.57146186557790   -0.84598994837185    6.04373942770358
H        14.54659786130470   -1.81854204528556    5.57698128049790
C        13.89823449761046    0.21319511264669    5.47788289105258
H        13.33786356001744    0.06727346873595    4.56649468964103
C        16.01561736548344   -1.80504970485617    7.85398578817913
S        13.49388765215206    8.81070261998555    4.71214663191763
F        10.29741158372364   15.91032205185405    8.80549808977062
F         8.42008068157039   14.92146099920200    8.46670660864288
F         9.21509198969379   16.25991532570071    6.98154071327557
N         9.39382365003675    8.22336077686320    7.73858209528406
H         9.53923159067369    9.17747077782032    7.42166888118167
N        11.41052835741499    7.77595247185199    6.67345111462655
N        11.42278292229755    9.13617126557725    6.46191950062325
N        12.32826715114742   10.99367198225189    5.45278987865053
H        12.93437091097189   11.25847419948430    4.68720517681218
C         8.30338035346628    7.84879787654711    8.44036653205992
H         7.59594344734275    8.62746522684468    8.68139951561689
C         8.13318241094962    6.55431293659317    8.81073824832763
H         7.26671810491029    6.25099183367639    9.37202453004734
C         9.11992137972897    5.60370002930903    8.43906117378965
H         8.99021932656164    4.57196803154709    8.72610846101720
C        10.21338081954390    5.98548870075772    7.73185228640309
H        10.97592870528869    5.28456585237918    7.43229314743406
C        10.37696507201272    7.34761110590586    7.35189921748088
C        12.29451773283121    9.63707131821886    5.66197930019997
C        11.63926725427641   12.01018823536210    6.06623357483663
C        10.93256397282132   11.84402299515243    7.26087319295514
H        10.94434921499440   10.88117474166002    7.74162060902869
C        10.26152117504962   12.90504318107400    7.82945018082822
H         9.71908461057104   12.77148150773862    8.75332712918699
C        10.27861871380252   14.15310532278127    7.21733936439164
C        11.00114255215790   14.34029254667354    6.04373816791400
H        11.02600673509358   15.31284347552938    5.57697792409648
C        11.67436256592867   13.28110395864136    5.47787923846054
H        12.23473048571747   13.42702275523115    4.56648868071760
C         9.55700033264638   15.29935966059422    7.85399168017875

