37
CSD_code = NESDAQ | q = 1 | S = 0 | Stoichiometry = C9H21N3O3Re(1+) | MND = 6
Re        7.52269641432414    1.30807641890484   13.57837296501316
O         8.40424579001465   -0.08290963518230   13.29194100732402
O         5.86860641443747    1.07171802604174   13.53359402003910
O         8.03877219922150    2.16068020134107   14.92023279433731
N         7.34833988144871    1.25682848790471   11.06807049534100
N         6.83790525368366    3.57025660551623   12.71309624253630
N         9.50131967634924    2.47586867272728   12.55022530772973
C         6.58686524033151    0.03180287938453   10.80028420963139
C         6.67422621393274    2.43101000196839   10.49542317358752
C         5.97067781885255    3.27348102782826   11.57056594204690
C         6.05569540934779    4.13921110302827   13.81612820037585
C         7.97018156992138    4.44162232775179   12.36713729034341
C         9.30479113815658    3.88732434269141   12.88886086917626
C        10.64612495417015    1.92699350115983   13.28531746919410
C         9.64343698813739    2.24333175370503   11.10566520925765
C         8.73240381668081    1.10894564389658   10.61193102375149
H         5.57950465469869    0.13460619025099   11.19839524579909
H         6.53900632639714   -0.16378656617433    9.72475734264562
H         7.05745220999029   -0.81477394337247   11.29689957180419
H         7.39446287237060    3.04054782900839    9.94747746313626
H         5.91306047795224    2.11378219114003    9.77623160001840
H         5.11734063656862    2.71041849068481   11.95646734224459
H         5.60014905309949    4.19820960420969   11.10989286121588
H         6.70152869095441    4.29664768918909   14.67749456834014
H         5.60379349677956    5.08972882972392   13.51676897127029
H         5.26926895617860    3.44661066151392   14.11046192665560
H         8.01391901159560    4.57964157542638   11.28568029574012
H         7.83060009738557    5.43270641049051   12.80928796853015
H         9.31267358574775    3.95701792015476   13.97936529374124
H        10.12305226269067    4.50242804048754   12.49303712795002
H        10.74218863040946    0.86486512353725   13.06969018652399
H        11.56812218069331    2.44425285051743   13.00305216212177
H        10.48791073855633    2.03737022529055   14.35654653843101
H         9.43163954555680    3.16418883186862   10.56004298933083
H        10.67450638964143    1.96330026707734   10.86959919555222
H         9.10045684604174    0.16172234929059   11.01374141627427
H         8.78087455768152    1.06667407101735    9.51626371298913

