75
CSD_code = NESJOK | q = 0 | S = 0 | Stoichiometry = C32H36N2NiO2S2 | MND = 6
Ni        4.57257053907671    2.40229410984420    5.05667255416164
N         6.06361209294257    3.51491745532106    5.92824786856292
C         7.27671539431670    2.77911049233022    6.28061146989648
C         6.37921422821077    4.71579220221397    5.15002692146438
C         5.18158963731302    5.67542738846418    5.12716730544651
S         3.61923083066897    4.99019539866591    4.49104004187907
C         3.77063281961809    5.33687223263778    2.68653405746806
C         4.05271219342493    6.77934258956550    2.43309744682015
C         3.11900319460803    7.74782595670848    2.78756923987652
C         3.38464456092244    9.08721534608262    2.57494562604868
C         4.58879585573382    9.47539931401320    2.00914332639307
C         5.52384991163179    8.51756492532714    1.65731307249939
C         5.25949916317869    7.17503573018622    1.86927969746274
C         6.88180773035015    4.37731094837003    3.76254357160209
C         7.84737060235237    5.19599321938604    3.19822506946982
C         8.33943527299375    4.97439679910602    1.92557219325070
C         7.85843953612472    3.89359482895346    1.20172497699259
C         6.90494595419195    3.06368094203223    1.74199471661460
C         6.37672035763866    3.27251682456714    3.03527986905742
O         5.45641594638955    2.45161500807878    3.44961771975973
H         5.60324036409759    3.80622525590053    6.79591664748284
H         7.75365059788531    2.40536454879746    5.37500785446407
H         7.01932212338617    1.93353714675869    6.91443670891989
H         7.98785401992673    3.42497619398367    6.81207790929088
H         7.18891780735528    5.26819817804517    5.66469800921741
H         4.94196523731351    5.99194568621459    6.14466399802970
H         5.41715729540887    6.55422448895412    4.52624948829761
H         2.79564246630023    5.05324454187162    2.28836464828948
H         4.54188386996467    4.69390566906495    2.26859297673657
H         2.18758031296118    7.44000106038559    3.24010168354169
H         2.65260330869517    9.83159599937202    2.85219669252974
H         4.79709731940724   10.52231682887485    1.84491322333572
H         6.46520207475523    8.81356170581700    1.21817683519445
H         5.99252174592100    6.42936746581904    1.59681153789204
H         8.21681192818144    6.03586806327865    3.77317742574498
H         9.08747377549634    5.63036241184271    1.50741254669280
H         8.23298988283166    3.69851223550419    0.20669961988178
H         6.52652870595437    2.21888293387522    1.18525340123131
N         3.08150274339072    1.28968460491308    4.18509640095210
C         1.86848269126789    2.02557555035699    3.83262565693657
H         1.39160827405855    2.39956680513556    4.73816178263698
H         2.12596508691068    2.87098633878626    3.19862011968962
H         1.15724111689610    1.37969952832939    3.30130593602740
C         2.76575230115179    0.08888252071677    4.96337142951458
C         3.96330218408973   -0.87084339858260    4.98634379893644
S         5.52575496704585   -0.18565548552010    5.62229068781878
O         3.68875813647228    2.35297558772242    6.66376048500680
C         2.76826037228346    1.53226098446817    7.07804437829751
C         2.26309048855527    0.42749594695258    6.35079736025239
H         1.95603639753602   -0.46349271921310    4.44868429866341
C         1.29732854477256   -0.39099250284390    6.91505671452480
C         0.80513999514487   -0.16922354675637    8.18763138929367
C         1.28621434238104    0.91155567965031    8.91145890097387
C         2.23990555692326    1.74128019017066    8.37124588398200
H         2.61838107861835    2.58606408403878    8.92796876412230
H         0.91155739552952    1.10678082842293    9.90641649307655
H         0.05694464673945   -0.82503912358755    8.60574602933332
H         0.92782851872183   -1.23085467098770    6.34012265807335
C         5.37444806546651   -0.53206371356904    7.42685549180021
C         5.09221670380985   -1.97446161127311    7.68052664710316
C         6.02586884994715   -2.94309653159791    7.32631453320052
C         5.76009161413963   -4.28242148513258    7.53917757878291
C         4.55585755424675   -4.67038780316221    8.10495521788141
C         3.62085349504554   -3.71240385763371    8.45651428940425
C         3.88534150285308   -2.36993914024067    8.24430984107701
H         3.15235950300939   -1.62415276873891    8.51656649120357
H         2.67943583382257   -4.00823148147996    8.89562551656549
H         4.34745382717114   -5.71725447009230    8.26937839348959
H         6.49209198247192   -5.02692182580285    7.26213628079562
H         6.95735892488084   -2.63544355746279    6.87380220967571
H         6.34949597957677   -0.24848558218132    7.82491836686315
H         4.60329802081543    0.11105746985839    7.84473966396695
H         4.20285287653955   -1.18755389541949    3.96888962994154
H         3.72767822111668   -1.74952071514733    5.58741359746099
H         3.54189354907584    0.99828164068283    3.31746913116937

