89
CSD_code = NESJIE | q = 0 | S = 0 | Stoichiometry = C28H50Cl2N2NiO2S2Si2 | MND = 6
Ni        4.16626649167016    7.46502703936781    7.07191297402501
N         2.69072208230963    8.40796564137727    5.56974650321505
C         2.86445305012743    8.05493012716532    4.16425255641929
C         2.69633863125969    9.85290055776066    5.77713090386113
C         2.57639309275562   10.15573019843980    7.27351357013250
S         3.97175539173432    9.53042250259051    8.25133327385144
C         5.29406773361384   10.69670804135234    7.75944027824449
C         5.12439646106118   12.07654181601970    8.35493051659900
Si        6.42651237513096   13.30172216469138    7.65553033462956
C         6.06996319765970   13.55979121905835    5.79794588994478
C         6.25712718479954   14.95762037911155    8.58703526272361
C         8.17568445199315   12.58349170996679    7.89215245116043
C         1.59330599203634   10.59558519722060    5.05208224959017
C         1.89844375040756   11.69524175831316    4.26412455157541
C         0.91360447178138   12.40905086982900    3.60395385756469
C        -0.40804982913074   12.02096193149339    3.72429238661451
C        -0.73550435881828   10.92682695660252    4.50390650462623
C         0.25174939891113   10.21403212761415    5.17141027310288
O        -0.06154482197842    9.13510622612326    5.94423504284560
Cl        5.79603985068923    8.14448503980180    5.92202430219081
H         1.78402240965645    8.05324213352406    5.88677434464711
H         3.84970518379889    8.38494108364870    3.83446608755881
H         2.10112113226154    8.51356634850288    3.52219142546138
H         2.81538301759475    6.97233968134310    4.06009389347193
H         3.65958384070653   10.22563390723729    5.40527105646723
H         2.49838897841652   11.22930627174661    7.44436726489843
H         1.69981168278573    9.65528416379008    7.68526872075339
H         5.32365987297033   10.71736514836584    6.67368853686550
H         6.21165742875494   10.22857354537372    8.10906551842285
H         4.12634536263976   12.45591718079621    8.13081068442460
H         5.19206271977158   12.00973924074956    9.44085165397756
H         5.04887094823915   13.88984482175801    5.62928446148559
H         6.21793970767253   12.64142573714065    5.23806759991379
H         6.72865779835888   14.30864679470747    5.36958763398793
H         6.95922253329340   15.69132875442673    8.20452955853351
H         6.45392443951895   14.83908224626529    9.64785896342006
H         5.26015880259228   15.37430880541700    8.48349861529506
H         8.37543011797595   12.35675093185072    8.93534065704095
H         8.93750083758673   13.28102473236182    7.55759993351044
H         8.30020119056920   11.66587745937075    7.32536934206242
H         2.93209439724101   11.99432743798383    4.16706550635421
H         1.17792427816767   13.26143901384322    2.99744321935828
H        -1.18740517813953   12.56595788792906    3.21365136741534
H        -1.76835230672812   10.61808202265454    4.60307545703240
H        -1.01552204980570    8.99507871887434    5.94958733559874
N         5.64382033439967    6.52371068841368    8.57291092917149
C         5.47067393051468    6.87706813069167    9.97839439359326
H         4.48550784232551    6.54725242266186   10.30864592240196
H         6.23417629482919    6.41844233018376   10.62026177165813
H         5.51990344783773    7.95967408713019   10.08230805663718
C         5.63785002378271    5.07874009343100    8.36583797994242
C         5.75746711203709    4.77528122639322    6.86950456175118
S         4.36260547398530    5.40053121291060    5.89102338212685
Cl        2.53664860718762    6.78878344782023    8.22348195156916
C         3.03925224478881    4.23568859542125    6.38344274983906
C         3.20654690839901    2.85733003163240    5.78387394694207
Si        1.90716776497142    1.63073437903670    6.48586011472847
C         2.27839046278600    1.35978890968191    8.33876110411286
H         3.29987389858800    1.02577649558313    8.49684362951068
H         2.13777612372213    2.27503840907652    8.90557263318153
H         1.62108052321464    0.61019301457159    8.76793978036419
C         2.06463104128756   -0.01950123591625    5.54228383836441
H         1.36439631970733   -0.75421630273827    5.92626786032425
H         1.85865605479498    0.10627211255810    4.48403352614169
H         3.06156870227817   -0.43895376427677    5.63422168937728
C         0.15780172528558    2.35456710993063    6.26860807027211
H        -0.05043952073954    2.58787925552545    5.22853775181869
H        -0.60290400311832    1.65705549230610    6.60573955219943
H         0.04060917059875    3.26921161583592    6.84170914736178
H         4.20549862518231    2.47728148041171    6.00286045812435
H         3.13434589683620    2.92679376851351    4.69841949733226
H         3.01251049537222    4.21223555520816    7.46921739954580
H         2.12122245300220    4.70562774501564    6.03737538018405
H         5.83411999609305    3.70155092990059    6.69920897538159
H         6.63455864038604    5.27457989835732    6.45742378669657
C         6.74108838364929    4.33612054636925    9.09066093751062
C         6.43628646261738    3.23649868678374    9.87881626418032
C         7.42136676913178    2.52298751061506   10.53895746669733
C         8.74293115131152    2.91129877259360   10.41835643507146
C         9.07006310473238    4.00530519724548    9.63843548605996
C         8.08257335370747    4.71780879714397    8.97097286720242
O         8.39557349579689    5.79656952107490    8.19781145411973
H         9.34952519962146    5.93675129143685    8.19225054762000
H        10.10284383960286    4.31416736235010    9.53896885458750
H         9.52247933716080    2.36648992100260   10.92891141720992
H         7.15731013876983    1.67059574634092   11.14559102311106
H         5.40272088630521    2.93721628954353    9.97612109249972
H         4.67470697856940    4.70624671714054    8.73825509923907
H         6.55040256477862    6.87830093153792    8.25535869336894

