36
CSD_code = NESJIF | q = 0 | S = 0 | Stoichiometry = C15H12Cl4N2O2Pd | MND = 4
Pd        5.66041923415215    2.09196188024385    3.02701711585112
Cl        6.10007691071195    4.11015429877124    2.08816577657476
Cl        7.09489241121744    2.53359883767714    4.67524153688487
Cl        7.20905610885589   -0.28506435434878    2.90154920516054
Cl        3.54758199942357    0.37474672108208    6.76727904771334
N         4.22860502621404    1.76198636658736    1.78701138679804
N         4.70752018351948    0.53802563324594    3.93481635284405
O         6.46674896336281    1.82481498395245    0.34259400133792
O         5.58087943624664    3.43358000572179   -0.97023699813838
C         4.17674382574828    2.28423841682944    0.56160782265852
C         2.98536901810019    2.35810823569612   -0.13964207271002
H         2.96456136714041    2.80383965882790   -1.12008545418477
C         1.83655162199923    1.83817670779471    0.45498190989917
H         0.88633884683243    1.91166888648218   -0.05067663710762
C         1.92776340880444    1.17990870087442    1.66864527968225
H         1.06005297998692    0.71815288539029    2.11208416949462
C         3.16083816147213    1.13534198775992    2.32526946805489
C         3.50241878479376    0.34322523068622    3.49769610032040
C         2.58898223514297   -0.73705128171511    3.97710694894910
H         3.14582960386894   -1.48108067670760    4.54207144091528
H         2.10000484305228   -1.21902614115442    3.13310297592682
H         1.82046163113084   -0.31980562941598    4.62758391940265
C         5.40996734197785   -0.17399032243924    4.88636189913280
C         6.69160645421070   -0.62530773752865    4.51224227130967
C         7.50462402422548   -1.28743481948443    5.41176042648422
H         8.47833239314743   -1.62370723434349    5.09744942719594
C         7.06867628930253   -1.47764761514379    6.71326098887564
H         7.70465769269432   -1.98235854116952    7.42262042034224
C         5.83965296764631   -0.99162648882033    7.12411410657926
H         5.51827418914000   -1.09850725909014    8.14787820646089
C         5.01837084959790   -0.34084796626006    6.21949660095222
C         5.54600135419109    2.54437659829672    0.00459871475512
C         6.88379661466393    3.74987772098290   -1.45214976978152
H         6.74694033120180    4.49763162807160   -2.22857236797239
H         7.36951214743764    2.85660152386191   -1.84946775832621
H         7.48029074886478    4.14883915887225   -0.62917646232009

