35
CSD_code = NESKAY | q = 0 | S = 0 | Stoichiometry = C12H12BrN4O3ReS2 | MND = 6
Re       -0.32631754496082    9.33510378973645   11.86453255608217
Br       -0.82889567588351   10.73270140939179   10.02620664509297
S         0.80799880699648    7.47643234970069    9.78432577567895
S        -2.68697333406225    7.72020368268155   10.92062283586788
O        -1.94431631817974   10.55158960913267   14.20000797032454
O         2.50389407844094   10.21540843481314   12.74025210556703
O        -0.04191394299624    6.64055132980564   13.33542000788451
N        -1.98557532816994    5.16513895580477   11.51572409727050
N        -3.20162112564220    6.15297835199744   13.04367498917335
N         0.27489054985818    5.00994339155070   10.78565759698284
N         2.26591448557752    5.77595991801193   11.27351566531718
C        -1.30255900130937   10.09755840426753   13.36216978909607
C         1.43697738119621    9.89181631359270   12.46287680273471
C        -0.13877904262224    7.67153465782401   12.81043457498408
C        -2.60029014840854    6.33995326485767   11.84627061856209
C        -2.20590403062487    4.26115890442871   12.53275169742610
H        -1.82913205275902    3.26117847683471   12.49678983943674
C        -2.95509292676820    4.87606767783038   13.47220532974158
H        -3.33098505842868    4.50890228095572   14.40455037739409
C        -3.89893474743313    7.19167790159580   13.74578628039959
H        -4.38983908581375    6.77289803286947   14.62027734419120
H        -4.63803847669892    7.64703747351421   13.08475923055130
H        -3.19349110194855    7.96930141142441   14.05337564882285
C        -1.10805340082499    4.98746740305425   10.38967893750841
H        -1.27194483258180    5.83001191543035    9.70266770740316
H        -1.33342937583175    4.03700605156918    9.89402403473338
C         1.10797650174144    6.08397988403443   10.64523770445581
C         2.15752960245114    4.52535627342388   11.82073366468207
H         2.95703181072651    4.07820052986606   12.37407900146868
C         0.93142423086003    4.04690143259238   11.52151053625861
H         0.48262989274747    3.10501306644022   11.75521127819814
C         3.36600706787965    6.68873292579408   11.39548656706657
H         4.24328690567430    6.15575843715203   11.75295209628639
H         3.11008838120156    7.49109206759971   12.09374659858890
H         3.57233685659646    7.13808399042178   10.42308409476685

