99
CSD_code = NESLUV | q = 0 | S = 0 | Stoichiometry = C55H38N4PRh | MND = 5
C         7.35038535716629   11.15113792766288    6.02510596098463
C         7.75120554435881   11.73354500969739    7.25340128600703
H         8.35793433227938   12.61282310346507    7.36229380372007
C         7.24813747820896   10.94909245684963    8.26574043606617
H         7.38527111461429   11.09571041284020    9.32026756968373
C         6.52862963233513    9.87317789830894    7.66494183516010
C         5.91045881175623    8.72850401256341    8.20062597301780
C         5.41120645462300    7.66414503379320    7.42083884245399
C         4.77736936496084    6.47282419948489    7.90431083207162
H         4.61026259446978    6.23859221903839    8.93835147740335
C         4.41939877560034    5.72060084041149    6.82681703019292
H         3.91817962757519    4.77194308777421    6.83555125702610
C         4.82228372168565    6.43320424640343    5.65260133418218
C         4.62271773506521    6.06106829516152    4.31170679792042
C         5.07560648183502    6.77370532215632    3.18862251297032
C         4.99881148258510    6.37799357070415    1.81472692236798
H         4.54992803660732    5.47127707723832    1.45646736480596
C         5.60841850128652    7.34712632500381    1.07624919128331
H         5.71703295811083    7.37059721823211    0.00884368933033
C         6.08092059187912    8.35876140580943    1.97633585118997
C         6.75118867961879    9.55288756672319    1.62922358352256
C         7.17625964813510   10.51651701055136    2.56289420540500
C         8.01108215273442   11.66868552869465    2.44399399294717
H         8.42033756675030   12.05145830647552    1.52850202339168
C         8.21749361842456   12.17094621341874    3.70858483500993
H         8.81720457625251   13.02150903494627    3.97332180966398
C         7.52231278338261   11.33389749771716    4.61714176276099
C         5.79624059949694    8.65446738184604    9.66695967991410
C         5.16062471436904    9.68598381589146   10.35491264097222
H         4.74463580028916   10.51255885675262    9.79537973969294
C         5.05003971552969    9.64667142621255   11.73217162644172
H         4.55093530238165   10.45035306494428   12.25464299299847
C         5.57754156097529    8.58122315514453   12.44304479036738
H         5.49245480299419    8.55178773361123   13.51948171953405
C         6.21955423662701    7.55626402777580   11.76827157309260
H         6.64104024663509    6.72791458456560   12.31957488518036
C         6.32895032419991    7.59098735188917   10.39028055003332
H         6.84827430891031    6.80132333804208    9.86691122701115
C         3.85336264731566    4.82551586491992    4.05949927727608
C         4.31457417514959    3.58454863407917    4.48634716162517
H         5.26754109688847    3.51918683208949    4.99121807730680
C         3.57050596143446    2.44225589183572    4.25282910064805
H         3.94091180849762    1.48271113647766    4.58407005428130
C         2.35466521292285    2.52527703304546    3.59514332005610
H         1.77297192082561    1.63277819589493    3.41642283076980
C         1.88902081366440    3.75681177387025    3.16531349830832
H         0.94082688270944    3.82700825357771    2.65157349927467
C         2.63423193638753    4.89895392790896    3.39190348659029
H         2.27042438362643    5.86280806595275    3.06479945923598
C         7.06725130104278    9.80664996891463    0.21447250052701
C         7.77499541621981    8.88206212154784   -0.54976571013262
H         8.10737191169125    7.96108523675318   -0.09329045830976
C         8.07758524689929    9.14899079775007   -1.87221321064787
H         8.63240077870350    8.42557861377114   -2.45234178571575
C         7.67837128919362   10.34144135417447   -2.45257814196494
H         7.91441141532816   10.54761449057304   -3.48630401312336
C         6.98179365620634   11.27118963257572   -1.69838508280658
H         6.67221587731881   12.20574734437798   -2.14427143494685
C         6.68302437074961   11.00958467758684   -0.37452886100491
H         6.13515212430416   11.73148955302343    0.21364247382941
C         2.49787411547009    8.96580476350615    4.89087512914089
C         2.39723623254106    8.21380607824258    6.06084828893011
H         3.14098652279308    8.33220796978948    6.83433097161301
C         1.35477472562546    7.32481465688686    6.23928949847850
H         1.30005110404285    6.74194045914432    7.14629161957131
C         0.39424944547617    7.17547010067599    5.25269354323624
H        -0.41096824611760    6.46803572202194    5.38132483345653
C         0.46989924051210    7.94069931928990    4.10139936284609
H        -0.28510988408356    7.84076179649677    3.33522644227032
C         1.51268205902495    8.83262047044769    3.91750843611731
H         1.54911767885157    9.42686029473058    3.01693298774765
C         3.65967734092548   10.90093063074145    3.11740113607497
C         3.63237082237023   10.10538777344949    1.97097314520946
H         3.72927798820622    9.03509147670826    2.06607650469229
C         3.45970927154362   10.67382754751426    0.72374094012052
H         3.45232017561641   10.04613478118646   -0.15479406922316
C         3.30858482056626   12.04598198267082    0.60404149295332
H         3.18801976939643   12.49437579271873   -0.37079905591481
C         3.30738013556170   12.83910078527083    1.73925560635924
H         3.17245100267100   13.90723029562326    1.65162256011154
C         3.48031684081904   12.27431059300095    2.99145759908253
H         3.45859986347639   12.90543828728101    3.86702613240539
C         3.76298742100513   11.33545694540419    5.98295076587059
C         2.85767738603518   11.24588360703052    7.03440927369150
H         2.14396990976782   10.43672451180006    7.07269729680409
C         2.86148453961895   12.20248082228651    8.03513695878672
H         2.15843208105376   12.12163949393374    8.85135382780141
C         3.76398101549927   13.25195168411372    7.99883390077686
H         3.77335376026808   13.98548288996451    8.79117509687917
C         4.65518809913880   13.35795126368223    6.94326346475350
H         5.35831994696573   14.17636839832075    6.90616869185789
C         4.65668928216675   12.40712660638412    5.94125651621553
H         5.35816572472577   12.48340556256089    5.12309436509837
N         6.61742495993328   10.04784079381676    6.32083371199029
N         5.41849015837936    7.59554557349004    6.04804473888268
N         5.73309310465517    7.96890086295424    3.24502975828836
N         6.90128234181738   10.37302083742811    3.88623982967450
P         3.95085582017752   10.05371536510399    4.70436812698935
Rh        5.93816396168036    9.03731824584426    4.85467092338921

