57
CSD_code = NESMII | q = 0 | S = 0 | Stoichiometry = C18H33ClN2P2Pd | MND = 4
P        14.80097740680588    2.14000770199903    3.27752692085711
Pd       13.56156210825205    3.96190209819599    3.55092615825647
C        13.56222531587116    3.96200571330944    1.56978978941738
C        14.19346404087380    2.94549765236836    0.86015285278841
C        14.20150274739353    2.94234295890502   -0.53067686098097
C        13.56213644622856    3.96188336183154   -1.21428387500414
C        14.14439339606774    0.54818091151691    3.95542795428445
C        12.63513723318476    0.64302713450253    3.72873835264158
C        14.76003032720289   -0.68857020952583    3.31443389077250
C        16.59088285905615    2.29876443480351    3.73198222964548
C        16.94456822518830    3.72738211163249    3.31339678779179
C        16.77699489977620    2.10339664373121    5.23160219849124
N        14.78592675016878    1.91860774566561    1.61318250504920
Cl       13.56280182933771    3.96188816692690    5.85678987447754
H        15.40405602051198    1.27649946011964    1.13395970094877
H        14.69878678303486    2.14866657427364   -1.07065812792791
H        13.56212260374098    3.96186029556825   -2.29430587155114
H        14.34264400137009    0.55579154145084    5.03259600851085
H        12.11723525326452   -0.22722139771532    4.12769516935593
H        12.25119053086965    1.54044333315059    4.23262108218465
H        12.41853251060445    0.72365079096372    2.66107192638811
H        14.36517875577957   -1.58927976178139    3.78212052646733
H        15.84289270256975   -0.69120721430978    3.43069318801495
H        14.52031450834617   -0.72610611053751    2.25318554762975
H        17.19415891916223    1.57706806522373    3.16423197286442
H        17.97838951179428    3.96780498716731    3.55641196769023
H        16.79612375887644    3.86629124113569    2.24003979423381
H        16.28595343213734    4.42900182833026    3.84774558877539
H        17.77504335810645    2.41566196468949    5.53506597947200
H        16.04685119178367    2.70551117003440    5.77365768005574
H        16.64516691948781    1.06070104308031    5.51366950636198
P        12.32315404440493    5.78420751897089    3.27740098429850
C        12.93088628707091    4.97842492162173    0.86010699074051
C        12.92278536758537    4.98145842221973   -0.53071762280376
C        12.97984047481346    7.37587054707878    3.95547105722032
C        14.48908207721789    7.28105067900648    3.72867350392056
C        12.36389402831777    8.61242948035626    3.31444767811077
C        10.53335990459340    5.62489088227719    3.73199702359503
C        10.17968927057906    4.19626167436063    3.31337852841444
C        10.34720641354230    5.82025220294526    5.23161440672464
N        12.33832699871588    6.00534695223588    1.61302165278152
H        11.72017594730693    6.64735064385060    1.13371535066559
H        12.42544738668320    5.77508526765467   -1.07071929168355
H        12.78159292524654    7.36816575706840    5.03263955466531
H        15.00695256059652    8.15130836640234    4.12764662191670
H        14.87311168918687    6.38361267360878    4.23245660829701
H        14.70560037542885    7.20051017883779    2.66098696270577
H        12.75869723741050    9.51312557678957    3.78217280871786
H        11.28103389043004    8.61495758562142    3.43077143975339
H        12.60356383962854    8.65003619124887    2.25318946885264
H         9.93009127860428    6.34656220562375    3.16424687173208
H         9.14588321323208    3.95569651878588    3.55635512198954
H        10.32818816228994    4.05738452186598    2.24002362166229
H        10.83835090940353    3.49468446029052    3.84770599624457
H         9.34917751259679    5.50790740391760    5.53507893647298
H        11.07740239702689    5.21820471349122    5.77366996070409
H        10.47896146123982    6.86296041716314    5.51367534633702

