59
CSD_code = NESPOQ | q = 0 | S = 0 | Stoichiometry = C20H33N3Si2W | MND = 5
W         7.84952121974460    3.98148254131413    2.33321371282974
Si        8.84279301746642    2.94525778547510   -0.85959213238468
Si        6.84590059354765    7.28911174278129    2.06202859394772
N         8.82437753026053    3.89619148778122    0.58205905958269
N         7.91645295721637    5.94213850381465    1.94442849462091
N         6.25481578388374    3.19588822755799    2.50165847660307
C         9.11063322072805    2.23247977926168    2.87821402461647
C         8.15875393462439    4.59821264278542    4.44849253453871
C         7.09142161208050    8.44240031558937    3.57638003053992
C         6.93841286131130    8.35798166178898    0.47727871306459
C         5.19432716694121    6.33995449845988    2.20946445809105
C         7.11998864059675    2.12145384536713   -0.74979244559833
C        10.20572965688027    1.59665355137250   -0.96262296685684
C         9.01569860365702    4.08088801488815   -2.39047989051039
C         9.78141861467835    4.78959395403895    1.01425296324930
C        11.14753273578687    4.72255621290437    0.73606411144470
C        12.00963319114106    5.71122531360241    1.17907516570116
C        11.52600573942832    6.80197538601491    1.88528931945963
C        10.17405870958637    6.91518662088350    2.16088385305775
C         9.27940393865447    5.92372243742714    1.75589125824214
C         5.07110438314431    2.58419124268880    2.72281624910103
C         4.02253979205080    2.62197989704001    1.78558153900214
C         2.82545769876160    1.98778782945679    2.04362110069555
C         2.63193875652342    1.29964343635799    3.23105639011000
C         3.65590375656441    1.25091664638513    4.16641225600940
C         4.85687888340197    1.87997573996448    3.92360610493755
H        10.17878336349139    2.51783200204118    2.84596778498340
H         8.99710480673848    1.41292580518874    2.15031402952761
H         8.95939286146685    1.76896680113581    3.86336731238133
H         9.15181756425315    5.07645009586056    4.54784834072136
H         8.12916358667749    3.82057459825169    5.22462609623196
H         7.42886196834698    5.35789234420183    4.76987007949562
H         7.86948012475521    9.18002848554191    3.40107029524181
H         7.35692038434321    7.88949717782853    4.47300315486018
H         6.17607104220421    8.98617892445674    3.78740942033988
H         7.93000573266561    8.78207352655177    0.34665592816998
H         6.23156998035323    9.17967695442381    0.52088442178256
H         6.71356367724395    7.77360779856221   -0.41011587579519
H         5.02521084928124    5.73411695634454    1.32020298427474
H         4.34055381204137    6.99799873412636    2.32973103704371
H         5.22233615912924    5.66091852154484    3.06404724372599
H         6.74473127540178    2.20241667601295    0.27829398613372
H         7.15053330611217    1.07094567876735   -1.01822706718263
H         6.40289549423891    2.59938724955710   -1.40990307161956
H        10.37082210562014    1.10928349790701   -0.00581040724142
H        11.15683614539349    2.00361978250474   -1.29424195155021
H         9.92147936312654    0.82890564057757   -1.67556067190011
H         9.96329517577674    4.61188364249524   -2.38068978482719
H         8.22524716272466    4.82507556738587   -2.42451998181357
H         8.96943850263465    3.50540215132653   -3.30889903139447
H        11.51897339252161    3.88948133031614    0.15789992897476
H        13.06392805749124    5.63601919974669    0.95891227749747
H        12.20369230646334    7.57568976840539    2.21348944612148
H         9.78852945315422    7.77708837675748    2.68571602343582
H         4.17811893000977    3.15895007129689    0.85904587915052
H         2.03154967402934    2.02860402985377    1.31082039266737
H         1.69233456214101    0.80496830276847    3.42652503140046
H         3.51030286560942    0.71494945259096    5.09394460202862
H         5.66945331590272    1.85434154066733    4.63884117304510

