72
CSD_code = NESPUW | q = 0 | S = 0 | Stoichiometry = C23H42N3PSi2W | MND = 6
W         4.37290672937533   -0.00003254972674    3.03735755839683
P         2.91474247232738    0.00013764739040    0.74367285770159
Si        3.03317627340799   -2.89335863953273    4.33961335959695
N         5.61077891328727    0.00036487081126    4.32826204006101
N         2.88101913874582   -1.32173959194850    3.61964392279975
C         6.60917653331693    0.00002088488587    5.22140426865669
C         6.35942286772383    0.00042205261668    6.60908331487799
C         7.39984713802333    0.00016461121663    7.51140983384240
C         8.71625649469278   -0.00045807087618    7.07354280947233
C         8.98249727113335   -0.00077595753976    5.71176802225074
C         7.95422051160332   -0.00052218941480    4.79581324207795
C         1.64636141498989   -0.71390340019480    3.48101833068420
C         0.42850883839927   -1.38443254306287    3.37921799256121
C        -0.76637812424700   -0.69184286690747    3.26868023836339
C         1.71502208838439   -3.21279363352610    5.69783027531380
C         2.88083694145435   -4.30000032488036    3.03063924176380
C         4.74685040476674   -3.02374418657309    5.17165556416736
C         1.79641829325282   -1.40017232443184    0.29800377993084
C         3.93728737542880    0.00010613178529   -0.79936540639118
C         5.38869592944512   -1.62397296530855    1.83650378140491
H         5.32818488697869    0.00096687427410    6.93762535030395
H         7.18818387352539    0.00050283524802    8.57212523286232
H         9.52718904771400   -0.00065950426916    7.78669955115634
H        10.00725897542971   -0.00116956864418    5.36576618892381
H         8.14383657956577   -0.00069922822992    3.72957853374486
H         0.42691609579897   -2.46338771722804    3.37485401861158
H        -1.69488531692926   -1.23707132520499    3.18375222918466
H         0.89845805741573   -3.82934411264818    5.33709003063814
H         1.28595813208739   -2.28273035453828    6.05850799282404
H         2.15468063167138   -3.72605321268771    6.54684847563647
H         1.95924423889051   -4.23862604759411    2.45841514749188
H         2.89354111177362   -5.26744279801655    3.52232212794360
H         3.70792689080858   -4.28466169164664    2.32709474700913
H         5.46748329045148   -2.35896405384081    4.70079389599696
H         5.12935628934654   -4.03715901013151    5.11208132279609
H         4.69817393844690   -2.75720101959236    6.22243855432248
H         2.32334454429596   -2.34349911329953    0.42833845788324
H         1.46842520633362   -1.30915823039122   -0.73675058863373
H         0.92907447882470   -1.39707825000067    0.95511951562155
H         3.29115323214957    0.00070278686565   -1.67634250447286
H         4.57169873729614    0.88246961018250   -0.82646753940284
H         4.69046249275330   -2.26989421991436    1.27802593417401
H         5.96346099738795   -2.32348311306407    2.46144511389901
H         6.11615113726824   -1.27188661930444    1.08632484277661
C         1.79623895654918    1.40042685663872    0.29843720743289
H         2.32288825663373    2.34377169079576    0.42971111730304
H         1.46877646140521    1.31004692657221   -0.73653896846720
H         0.92859701701026    1.39662972514228    0.95516131194638
H         4.57083972413006   -0.88286976057307   -0.82702968624921
C         1.64631936407425    0.71367955775783    3.48118540737113
N         2.88097823178431    1.32153199333844    3.61986304127713
C         5.38830430867830    1.62426983503807    1.83655568422963
H         4.69026340538767    2.27009442057799    1.27769974127775
H         5.96251635634049    2.32383695920381    2.46193510743532
H         6.11640405001608    1.27240315337434    1.08688898652179
Si        3.03308361145590    2.89325287373911    4.33968010994095
C         1.71504820610382    3.21275798428027    5.69799840136122
H         0.89862749693243    3.82955831602780    5.33732872684950
H         1.28579863651372    2.28271286952852    6.05852440377818
H         2.15485680209438    3.72579125973391    6.54708697771360
C         2.88045205637894    4.29954343581610    3.03035090082220
H         1.95870173823023    4.23803504403435    2.45839918720406
H         2.89336485542701    5.26715225331171    3.52170259569851
H         3.70735043211800    4.28390831432991    2.32658390965645
C         4.74685861575551    3.02435920568244    5.17146034313377
H         5.46701357154226    2.35790605184232    4.70221531333381
H         5.13008403095257    4.03735835802129    5.10940019483744
H         4.69797527059485    2.76047783145441    6.22290577383938
C         0.42841821449693    1.38414458874194    3.37961808156488
C        -0.76642332855514    0.69149324337955    3.26890078712742
H        -1.69496650556218    1.23668912302726    3.18416476850718
H         0.42670510854493    2.46309801783083    3.37556891602791

