66
CSD_code = NESPIK | q = 0 | S = 0 | Stoichiometry = C21H36Cl2N3PSi2W | MND = 6
W         2.00166773999938    2.13731201186030    3.49577785760920
Cl        4.17670556633363    3.05765344610755    3.41922290568899
Cl        1.84461558456971    2.15791256759628    1.13865112677124
P         1.62978854750765    4.63929187718827    2.88885802815850
Si        2.97428745919865    2.50180488937304    6.68553269916848
Si       -1.04415359722324    0.94850504119631    2.74788726888520
N         1.80104986256551    2.68447954332198    5.40183387295230
N         0.01969712209012    1.99659788733043    3.65752582193128
N         2.64023457303764    0.47346867220497    3.50189879558667
C         0.55764141981285    3.26160761582475    5.58473122567526
C        -0.42538328129514    2.88203122890285    4.62217798666865
C        -1.71591815920521    3.39184451462204    4.73409259797155
C        -2.04201636792766    4.26440851686246    5.75979636356419
C        -1.08837187410311    4.63256555811463    6.69366930289324
C         0.20089478103741    4.13183176168938    6.61111035608060
C         3.40066035237744   -0.56366530917865    3.13480035396818
C         3.32727340000632   -1.83682240146555    3.72715550602895
C         4.14654615892232   -2.85704097093517    3.29291722302743
C         5.05462176828896   -2.64736968753505    2.26695494717517
C         5.14014641895413   -1.39642212092489    1.67081323130926
C         4.33112992499253   -0.36601425903818    2.09122234815331
C         2.11312885837890    2.12140284306749    8.35281331109403
C         4.03540907132843    0.99291168860142    6.20845526710445
C         4.06393840827074    4.07224064095641    6.85064988129066
C        -2.50269262284660    0.34027251936092    3.82867744935923
C         0.00851312099286   -0.56577560278895    2.26851360447288
C        -1.71373915284858    1.83388303318742    1.18310103809419
C         1.95075007055925    5.93403195115364    4.15554289680891
C         2.70490304557069    5.27984653789725    1.54062447275784
C        -0.00471694046968    5.17576340165995    2.23746262618715
H        -2.45656311950500    3.10990910181218    4.00209764000252
H        -3.04544009956741    4.65706187871730    5.82640802017374
H        -1.34542105400678    5.31331312099290    7.49115866822079
H         0.94630387954949    4.42343796366775    7.33447386791692
H         2.61734608508207   -1.99757747203879    4.52725616012127
H         4.07763936848043   -3.82990330456477    3.75941584235511
H         5.69208565706463   -3.45224279439758    1.93302543094042
H         5.84672205796601   -1.22851439656977    0.87033037263401
H         4.38405652776330    0.61963220851276    1.63706570516423
H         2.63461656975545    1.32750966499627    8.87626950720987
H         1.08375841128701    1.80615246328723    8.21201123618491
H         2.10564854390895    2.98622766974267    9.00723109212110
H         4.73102066263588    0.73963764449847    7.00212090007368
H         4.62015776802044    1.17671199812188    5.31052712696802
H         3.40991124972408    0.12255060940518    6.02318756419492
H         4.79924249127734    3.93170220660414    7.63618815699445
H         3.48488510666380    4.95743061329447    7.10016451411240
H         4.60473609541262    4.27063311624757    5.92908665408179
H        -2.69130187612777   -0.71289544931677    3.65090406254831
H        -3.42017767321773    0.87279014808657    3.60309033094949
H        -2.30022626361375    0.46737403279800    4.88780486645249
H        -0.59945334653406   -1.32769268407082    1.79125136643519
H         0.47026081769005   -1.01008101197183    3.14754391836584
H         0.80338621677384   -0.30300594384583    1.57484471171039
H        -2.35197066577874    1.15961898326778    0.62136492903054
H        -0.90151409077564    2.13642635141476    0.52752327741957
H        -2.30160521088253    2.71604354743268    1.42252581416586
H         1.24439383025656    5.83869814132365    4.97866911039848
H         1.85754469648038    6.92433916216345    3.71110449912513
H         2.96252896549608    5.80241152256444    4.53846717324318
H         3.75122889813482    5.18061419311504    1.82863050205887
H         2.47253510055045    6.32898936882536    1.35922381779398
H         2.53422559667766    4.70409686812292    0.63124090814368
H        -0.77112774890314    5.05895257670124    3.00202350037541
H        -0.25927580877181    4.55199194940687    1.38087595062603
H         0.03993110214455    6.21869855546602    1.92572243524173

