31
CSD_code = NESRUA | q = 0 | S = 0 | Stoichiometry = C11H15HgN3S | MND = 3
Hg        9.70333177047454    4.50989737696087   13.55472550660568
S         7.32668139697881    4.83571815437594   14.51514849610944
N         6.77935331821526    4.09970612883992   11.93300491923360
N         8.08148093109928    4.10966785112039   11.63083718162820
C        11.80006297008367    4.58444213604593   14.33643957049578
H        12.14526049865080    5.61666197218650   14.35422479840469
H        12.46193678224220    4.00655271515909   13.69623672250605
H        11.84463763217123    4.18342097178163   15.34718253486443
C         9.77845641869381    3.60679873999962   10.00746100223657
C        11.97174980951865    4.60806795495807    9.86934344145144
H        12.64913670626588    5.40841376270006   10.12856284366713
N         5.01764006528226    4.51105115998904   13.27835905565520
C        10.21727675389701    2.58682081988315    9.15820006359543
H         9.53128448335140    1.79930318145004    8.88098029861554
C        10.67220199781489    4.63115568727106   10.33918002453121
H        10.32194207359709    5.48272597126397   10.91437417725836
C         8.41838187881102    3.58886699116409   10.50010054136622
H         7.65963609778184    3.10189133118047    9.88715769854084
C         4.36221794814781    4.86191230932619   14.50913481678952
H         3.59257421606622    4.12001599686317   14.73539996155455
H         3.88789229014989    5.84415256391908   14.42304708928463
H         5.08231339495611    4.88986572639584   15.32332295396768
C         4.12557966473440    4.27336036919119   12.16978799717414
H         4.71190923366844    4.00512149351402   11.29603574063782
H         3.54273129311683    5.17360266780993   11.95851803441428
H         3.43803063409369    3.46067413921205   12.41566827542521
C        11.51736933004023    2.56789614595316    8.69442461360772
H        11.84488653987521    1.76811023222428    8.04654638046516
C        12.40193757699230    3.57265961960412    9.05500043732474
H        13.41806985962363    3.55647982134939    8.69033844387540
C         6.35213643360591    4.45848600830698   13.11675637871446

