89
CSD_code = NESTOV | q = 0 | S = 0 | Stoichiometry = C42H36Cl2N4O4Zn | MND = 4
Zn       -1.00933651861426   -0.08152455626859    9.42436662283211
Cl       -0.73712835171792    0.18836215832568   11.56863103219088
Cl        0.25118036961541    0.76204468217821    7.75889606720331
C        -2.01764182912232    1.00447749293429    5.00948010739581
N        -2.52042552570245    1.38671030443856    6.24408781123077
H        -2.43493580124540    0.71043746297251    7.02426631895128
C        -3.03023531827781    2.53442054761207    6.61886895600619
H        -3.14872031632702    3.31853903834093    5.87832339123094
C        -3.43285241679310    2.79622480647429    7.93518127516830
C        -3.21917507234645    1.83213102864181    8.98934290995045
O        -2.73456090101477    0.67197177007070    8.73483002407943
C        -3.57298102385335    2.21936439503668   10.30678196783624
H        -3.37838125489273    1.51260953812676   11.09979584952559
C        -4.12068269408061    3.44264897090775   10.56590984536506
H        -4.38072500066720    3.70928204906810   11.57979069347982
C        -4.35138882373381    4.36944046321173    9.53299277950989
H        -4.78897356172356    5.32845513799639    9.76328338509209
C        -4.00716974465487    4.05149399483218    8.25323585998954
H        -4.16449047312951    4.75701968152264    7.44924305387363
C        -1.79347191085555    1.89827592955835    3.96976449855218
H        -2.01258842894244    2.94745108699838    4.09112864278949
C        -1.29209196995576    1.45050444550499    2.75016903094513
N        -1.11308542207065    2.28232271746623    1.66245918915086
C        -0.86712913201854    3.53497904610342    1.74212998135264
H        -0.71666030478054    4.04722863236345    2.69844301229597
C        -0.73478213620486    4.35384780927647    0.56700980055482
C        -0.79393290331905    3.79407230758889   -0.72924473475376
O        -0.99727196681555    2.49136822429455   -0.92785414116626
H        -1.07604774867626    2.06473670396108   -0.03530582168271
C        -0.62985724727688    4.62801084402100   -1.83747270324061
H        -0.67271701767518    4.18209005013331   -2.81872189441638
C        -0.42299778350567    5.98017999106534   -1.67393522148901
H        -0.30083569621254    6.61059305918202   -2.54190959876183
C        -0.37128843720072    6.53920150145472   -0.40022809143079
H        -0.21306112889624    7.60001956255979   -0.28104820583028
C        -0.52271779243427    5.73121589437303    0.70228870752587
H        -0.48399971252097    6.15167179956744    1.69701932632903
C        -1.02304214745085    0.08336175410967    2.55587442282743
C        -0.50543388940473   -0.40172120974977    1.24034973577937
H        -0.18460282942452   -1.43713112736523    1.31617036165669
H         0.32772769413872    0.21118840136067    0.90462032019583
H        -1.28788559477634   -0.33494270461294    0.48487946445208
C        -1.24792594780111   -0.79040870861223    3.60825348777797
H        -1.04075347977027   -1.84156204247581    3.47065290431075
C        -1.73329186367386   -0.34780843634469    4.82301597940242
H        -1.90619333284977   -1.03877127243536    5.63379409518511
C         1.16442831398314   -2.89379846329829    5.81323778515473
N         0.47559541314610   -3.12276659194190    6.99782951965247
H         0.03137019953468   -2.30075254536894    7.45024955144594
C         0.32627623325768   -4.22807948071159    7.68617571667563
H         0.78705774921179   -5.13811155353882    7.31699003796600
C        -0.39340407935456   -4.28379739703480    8.88849429169362
C        -1.01438754760070   -3.10502729771233    9.44627071331087
O        -0.96232694084909   -1.98715258423055    8.81905898287220
C        -1.68077128263820   -3.24447753287142   10.68677358351820
H        -2.12356977340151   -2.35630695264433   11.11229164916262
C        -1.74325685371316   -4.44768477996279   11.32985974698800
H        -2.25403806426249   -4.52191625225428   12.27853362033723
C        -1.15061292805174   -5.59744101009462   10.77829078268617
H        -1.21572098587757   -6.53721797543477   11.30413421087529
C        -0.49190833107692   -5.51133834640206    9.58779473104183
H        -0.02311757676884   -6.38333562549152    9.15382818608713
C         1.25321846712680   -1.56944299253333    5.39804878338833
H         0.80856952676421   -0.79559107846472    6.00661979040440
C         1.90904096403501   -1.23664715117980    4.21710390934517
N         1.97094557848430    0.05187770207639    3.71999950936218
C         1.77781697282479    1.10375747761531    4.42991125852289
H         1.58786311782055    1.07790026694354    5.50415266027648
C         1.84175400041227    2.41436452562679    3.83684395744958
C         2.13950734124819    2.59357957962708    2.46692863566882
O         2.32328250136950    1.55181408560803    1.65041757892158
H         2.25388454736705    0.73279984507457    2.21858331817418
C         2.25181687050576    3.88678668599850    1.95574101022423
H         2.48718195555143    4.00647830871080    0.90976966027884
C         2.06941577373816    4.97960624820257    2.77660259021917
H         2.17216828609701    5.97314174378504    2.36689101862432
C         1.75027750906764    4.81130011907017    4.12055742218470
H         1.59940557116174    5.67333395304497    4.75245640222977
C         1.63985069603865    3.54141454265547    4.64159103032653
H         1.39845828769779    3.38860940866234    5.68345667702771
C         2.49223625089562   -2.25122998316917    3.43370480080514
C         3.20893045573319   -1.91133668592871    2.16622935395034
H         3.67035928134675   -2.79583361238010    1.73519232496251
H         3.98041112393243   -1.16743236733033    2.35444846240501
H         2.51651471768557   -1.48809723557785    1.44031764148940
C         2.39336854738757   -3.56449777982368    3.86936389786125
H         2.83765696127030   -4.34919915486729    3.27431864357172
C         1.73651266240901   -3.90176167644384    5.03865124661286
H         1.66910087453371   -4.93767361157572    5.33197480699276

