50
CSD_code = NESYAL | q = 0 | S = 0 | Stoichiometry = C24H18Cl2MoN4O | MND = 6
Mo       -1.10080432211449    6.55180250322102    4.26976348251751
Cl       -1.11322365306297    4.83953886595476    5.99830899114248
Cl        0.05770628153853    8.03010233443235    2.72734730585238
O        -2.43550780781704    7.46588090975347    4.57848257115560
N         1.00800348039319    5.81603364939419    4.26448992827307
N        -0.12548246417096    7.62327426448060    5.81076205687650
N        -1.58253387078948    5.38565496806441    3.02606211473814
N        -2.15366986572589    4.65453030353986    2.14339289837202
C         1.56810631874612    4.95948124064980    3.43530875857976
C         2.88413616039141    4.51275517090432    3.57536526193963
C         3.65155517480462    4.97943582061370    4.61809312444784
C         3.09566353582535    5.91661327370745    5.50066894655856
C         3.79984340710517    6.49439607375607    6.59572105053774
C         3.21453049771232    7.41721841610246    7.39771655072621
C         1.87327909314735    7.84721211207089    7.17763850576555
C         1.22275915550052    8.81146833980283    7.96175849509619
C        -0.07501099187913    9.15440218577314    7.64364801221210
C        -0.70845333210653    8.54364979634535    6.56448228671665
C         1.14526783458936    7.28050165136463    6.10958630526710
C         1.75695973470791    6.30718018736213    5.27015325617339
C        -3.42253070577483    5.01476265594954    1.64463806861972
C        -3.81884037433576    6.34937496716683    1.71854375264938
C        -5.06545835777566    6.71852449641976    1.25176512497757
C        -5.92310786033280    5.77139425490208    0.71391021664662
C        -5.53264686735712    4.44360261798620    0.65613895750747
C        -4.28977969313047    4.05770333481984    1.12197407186377
C        -1.50039908081047    3.48210255225648    1.69512915612451
C        -0.81637654163295    2.70317524637300    2.62637129010735
C        -0.12178964057905    1.58373158333676    2.20771832337644
C        -0.10421062464803    1.23470225793803    0.86666738826053
C        -0.78144734397781    2.01337461835022   -0.05905017913519
C        -1.47699828131287    3.13722010583902    0.34618206605034
H         0.95157874881921    4.60191921754430    2.62035191805987
H         3.27899255654806    3.80376094732598    2.86537559064415
H         4.66896076417523    4.64543002358595    4.75980873734476
H         4.81871874228924    6.18003979628519    6.76706839781968
H         3.75645558378345    7.85366461254079    8.22372744809193
H         1.73823715377307    9.26926220370465    8.79259618875930
H        -0.60989479957061    9.89187759383728    8.22074286043046
H        -1.72635004563177    8.79172789725374    6.28779283450798
H        -3.14109183599038    7.08019967727648    2.14603723202536
H        -5.36835787948131    7.75271469563570    1.30791820011985
H        -6.89564737069298    6.06498371911565    0.34883377793132
H        -6.20378859022304    3.69910577389409    0.25373727143516
H        -4.00118058203497    3.01750821173141    1.09733644242308
H        -0.85129775252708    2.98237061031124    3.67187333148292
H         0.39999601167357    0.97739630204012    2.93297956943480
H         0.43586259912880    0.35805763390197    0.54226160205665
H        -0.76135207505792    1.74783477592448   -1.10542962219568
H        -1.99108022407140    3.75524554946262   -0.37424992039041

