30
CSD_code = NESZEQ | q = 0 | S = 0 | Stoichiometry = C12H15O2Re | MND = 7
Re        0.64311662032294    2.42908907444549    2.42554207768156
O         1.60068030811027    5.27467677714913    1.78626534950174
O        -2.29167012655841    3.28081681605674    2.71625525045883
C         2.26307338953943    0.75830250210107    2.24207402829992
C         2.63969054835562    1.58270695145026    3.30254739654646
C         1.54859267426661    1.57993782928238    4.28410741649743
C         0.59307789810354    0.56219720205997    3.83201309383421
C         0.99549704762607    0.12929149552280    2.56798645762710
C         3.09680430347656    0.39336802663900    1.05392012128419
C         3.94296802432907    2.28704252078990    3.50488070564923
C         1.68412183046258    2.04240003468661    5.70085339702785
C        -0.53888899671554    0.04592420124790    4.66056086492996
C         0.36757904005002   -0.96757649149511    1.76613807698260
C         1.19033250584487    4.21832709538666    2.00901496462247
C        -1.17879788492310    3.00546544922887    2.57574290523657
H         3.59191112459133   -0.56665876469698    1.22211675357101
H         2.49076434427657    0.29736806917132    0.15105883666321
H         3.86540214667994    1.14235764855643    0.86731107191920
H         4.56409590595786    1.71741722536376    4.19934050790972
H         4.48741479140815    2.39500583323534    2.56949235493689
H         3.78481902421139    3.27898673999682    3.92458796177349
H         2.20061708374557    1.28448857088638    6.29452281515518
H         2.25552654696422    2.96665808597987    5.75006482937678
H         0.70523401384175    2.21685658542688    6.14231241493089
H        -0.15854175492370   -0.66095142852430    5.40102514986734
H        -1.03396366461382    0.85892731519108    5.18860418837212
H        -1.27805719278504   -0.46579873286423    4.04839510179400
H         0.80625080182061   -1.93152444594224    2.03747644088851
H        -0.70543641227292   -1.02338957093793    1.94906750736104
H         0.52338605880192   -0.82301261539886    0.69632195930025

