77
CSD_code = NETBET | q = 1 | S = 0 | Stoichiometry = C23H44BN6P2Ru(1+) | MND = 7
Ru        5.23652024479071   22.46477139873932   12.44100963014934
P         5.19874502971814   24.46715417202685   13.71465077029294
P         6.87087543330691   23.58714286109843   11.08136473381989
N         3.95734736172793   20.23283416258566   10.85696309586931
N         5.12726141813029   20.66281236735563   11.34235089025503
N         2.50274292861288   21.17953141858318   12.59479509178171
N         3.45998052371393   21.75178078597752   13.32735246975995
N         2.89440235059884   22.44076171383454   10.55047029891818
N         3.82876781102722   23.23563912044640   11.08007312641977
C         3.59372084242394   25.46151677125552   13.61581582814577
C         3.75977627857254   26.95100723935903   13.32084286529503
C         2.69005952930929   25.24913995286054   14.83046182524343
C         5.61165930322702   24.47030239614071   15.53988330822250
C         6.75373164167354   23.51078399625928   15.86407022094346
C         5.92696571208614   25.85593503877555   16.10269782602349
C         6.55909025797658   25.56302239059415   13.07900450703697
C         6.89126996053935   25.37602964032032   11.60141576127742
C         6.58027930994095   23.75962828036513    9.23575624732520
C         6.13526695486802   22.44258597928391    8.60415138343731
C         4.11750690117841   19.03437441116620   10.27806902071084
C         5.44182225785471   18.67223740406921   10.39622890559148
C         6.03455902972121   19.72969895960587   11.08131057235805
C         7.74678167419025   24.36691528591909    8.46173199076494
C         8.69684720366637   23.20653238670479   11.22250306064353
C         9.00911796211548   21.76222172961256   10.84759882905614
C         9.24344105290140   23.49030290330828   12.61912998582290
C         1.50282111606248   20.77859130612011   13.38927543050338
C         1.82948472934721   21.09818068899631   14.69130412079785
C         3.07894095775701   21.70402534555274   14.59987001825445
C         2.15597445033622   23.12041592454624    9.66646985701553
C         2.62668340002714   24.41584747679599    9.61562007534564
C         3.67612197134409   24.43670531450563   10.52765865121975
B         2.66617094528975   21.02028550642499   11.07575239947469
H         6.63637902633860   22.06772739583714   12.90447509295237
H         5.65053309867995   21.61672856073382   13.63968044833463
H         1.73437928942899   20.50500282179751   10.57409396010002
H         3.06574126266821   25.01659408427356   12.76381234033476
H         4.28969300813685   27.12494892354501   12.38673854619500
H         4.28015110098504   27.47234656205370   14.11991060604245
H         2.77270819975331   27.40010989806660   13.22468025960938
H         1.71370154949015   25.68400578957991   14.62261072633242
H         3.08122256480061   25.73012092733031   15.72230717014342
H         2.54265379306328   24.18973607709177   15.03074529454401
H         4.70871715506013   24.09338193621818   16.03218026315592
H         6.53278681362756   22.50059902270278   15.52600828018914
H         6.90495234404221   23.48137505546850   16.94115648300944
H         7.68712480879661   23.83573134945700   15.40997596686829
H         6.88394965729378   26.22298119710977   15.74173170226218
H         5.98829111593003   25.79109646554266   17.18749671614373
H         5.16030510790292   26.58459640785038   15.85822102063968
H         7.42576200344988   25.27337024268867   13.67750288268395
H         6.33746038134906   26.61008196547573   13.29325901998450
H         6.18330217102640   25.92147143002218   10.97314891533116
H         7.88372196228409   25.78643967416520   11.39130905027846
H         5.73379526360961   24.45527956186868    9.17026066266551
H         5.79504373740491   22.62093175226849    7.58571660226620
H         5.31222574666807   21.99893748724959    9.16044423054872
H         6.94703350677074   21.72091001500491    8.56105963419327
H         3.29277235645904   18.52290902621694    9.82673910997817
H         5.91155540295940   17.77763067665119   10.04629773622310
H         7.05530985242090   19.83377877085069   11.38954597783202
H         8.57543719816341   23.66860972341370    8.37768142697598
H         8.09894022381130   25.28946148273341    8.91847760164542
H         7.41317380701839   24.60280889418159    7.45280255236504
H         9.19053138371016   23.87894845599333   10.51270652639915
H         8.51285162476693   21.46213610293942    9.92857785938064
H         8.70024532491635   21.09704785399694   11.65107692363861
H        10.08159983464009   21.63998098241858   10.70893322902211
H        10.25512739996831   23.09605549734405   12.69263987119714
H         8.63707715861723   22.99799462169947   13.37985517218141
H         9.29412840124049   24.55516511972996   12.82984894181515
H         0.63545815439041   20.29613718769515   12.98854256192435
H         1.25556200514825   20.91603729364014   15.57517412258698
H         3.71040450768654   22.06981380186763   15.38812536602232
H         1.35118868295685   22.65177095216673    9.13929293983928
H         2.26689013312364   25.22499361730031    9.01580325052769
H         4.28667533538623   25.27160100663638   10.80970015794363

