52
CSD_code = NETBEV | q = 0 | S = 0 | Stoichiometry = C26H19MnNO3PS | MND = 6
Mn        6.57537413554475   11.20733085472657    5.95856559214218
P         6.50651615436508   11.91946243016786    3.77347284835651
S         7.96372880607160   13.26195847049377    6.10078295028097
N         8.52000133810465   10.80225785179510    5.67287662664224
C         5.99835350749541    9.54448879273843    5.67587129111247
C         4.93689407600349   11.81212399536983    6.31156300699368
C         6.82179884340097   11.03544679527142    7.72073846880159
C         9.29191254332564    9.74045673304059    5.44859195197552
H         8.78971828476923    8.78174741192313    5.39921245937956
C        10.65719118231543    9.84221608491588    5.28765235820791
H        11.24655134365145    8.95767258854159    5.10957117922117
C        11.25525916173303   11.10121353481635    5.35828102694358
H        12.32197023708409   11.20571288945392    5.22884737741198
C        10.47125238379452   12.20299299934221    5.60249706998749
H        10.87654094423680   13.19926547753733    5.67792109848511
C         9.09507534259386   12.01551657814710    5.76611332880241
C         5.50635129566041   10.90027945286256    2.62917019075251
C         4.28184569289815   10.45159582955788    3.11782763012845
H         4.00602659865549   10.67819946594449    4.14252084271835
C         3.43029881976361    9.72138338440537    2.31101967330915
H         2.48475044662205    9.37540003230246    2.70076773708951
C         3.79470323714791    9.43011154185640    1.00627213928241
H         3.13491817323619    8.85332657988974    0.37543186210378
C         5.00790299707257    9.87829395571274    0.51241116694425
H         5.29419075623684    9.65434309166983   -0.50509336979679
C         5.86140847728325   10.61497034857063    1.31504083112640
H         6.80694292060910   10.95489076904950    0.91478525271532
C         8.11460216418389   12.00735635405833    2.93239504009101
C         8.74347249631051   10.81415442466074    2.58065046845533
H         8.22918845518946    9.87406893386092    2.74310213935497
C        10.01126801499116   10.83564411500070    2.03183156207176
H        10.49412658946279    9.90937773586822    1.75631603118720
C        10.66460905356476   12.04382359822522    1.84529918259869
H        11.65766778172322   12.05902797953685    1.42116818279118
C        10.04878631508676   13.23000949091869    2.20870288889316
H        10.56214959417474   14.17040216422764    2.07173935534877
C         8.77852192805554   13.21685401205473    2.75649625060207
H         8.30418143272973   14.14046761874720    3.05931532629661
C         5.77183865194022   13.54409069297801    3.38630445767056
C         5.30742182076112   14.39016233593882    4.38453860092643
H         5.40370982723350   14.10673890167475    5.42428330776893
C         4.74079416257810   15.60885189644487    4.05301207710031
H         4.38359791377012   16.26206128667215    4.83505450019194
C         4.63564466168935   15.98848759476723    2.72643409612553
H         4.19451320869025   16.93998013249916    2.46875931036220
C         5.09909232967148   15.14696835347702    1.72644170678544
H         5.01982718667683   15.44205731390121    0.69021591559075
C         5.66181956932511   13.92829095230429    2.05078940317809
H         6.01987054389547   13.27218351302730    1.26936911701245
O         5.63229194828338    8.46726110939140    5.49256756673175
O         3.87702881525742   12.15026134820430    6.60982051794540
O         6.98109783497476   10.99076020151277    8.85398040379649

