101
CSD_code = NETDIB | q = 1 | S = 0 | Stoichiometry = C52H44AgP4(1+) | MND = 4
Ag        8.65887172057447    5.85381015778728    4.18691642307929
P         8.08577329374720    3.76461800711370    5.60649218587859
P         8.88851246900428    6.72389432590269    6.49629963181542
P        10.45444406728031    5.76645375737829    2.39645325340751
P         7.13608695424832    5.85700841177376    2.18852680768597
C         8.11940559981524    1.95445193247468    5.48311744976406
C         6.95472044099751    1.23589602085994    5.23441511721616
C         7.01748585622689   -0.13243920322395    5.04697045827910
C         8.23798628071754   -0.78699127528959    5.08752133594667
C         9.40278943751716   -0.07036604651378    5.31175525354114
C         9.34766691150623    1.29799761215821    5.49947181106313
C         6.47998978872048    4.09985507164836    6.40125359262553
C         5.64843053694646    5.07643811283244    5.86851249762611
C         4.45455817642892    5.38986120466288    6.49156724319722
C         4.09053103030832    4.73116010029565    7.65373166318462
C         4.91502163356854    3.75165028656258    8.18619524087267
C         6.10784341303872    3.43339983899890    7.56555043427310
C         9.16321879160789    4.04851817039771    7.03641153305560
C         7.46313071165258    7.25687812621153    7.49098252508766
C         6.73688380459491    8.33868311889411    6.99982616219315
C         5.61778962575295    8.78568463322952    7.67383303996856
C         5.21078749194065    8.14695711153090    8.83490470533968
C         5.92826525458381    7.06770203885674    9.32195277249428
C         7.05444856722774    6.61876297528566    8.65538700688035
C        10.16428315850061    7.95280562062546    6.89496436513535
C        11.07251246617964    8.28270369505904    5.89425446420843
C        12.09096715935246    9.18164113701746    6.14997949602797
C        12.19837892913625    9.75796440596097    7.40541714958254
C        11.28945059331220    9.43706144867710    8.40273930652989
C        10.27098021129320    8.53582225282596    8.15396033597572
C         9.48570673806114    5.28689236015725    7.41341765800429
C        11.80348191118894    6.97090445829514    2.25183454513594
C        11.57109080472446    8.22228087033574    1.68876834627655
C        12.57637529862144    9.17223502108594    1.68548496476939
C        13.80523278857141    8.88586946520363    2.25816679504706
C        14.03017704891698    7.64877495465858    2.84291802738315
C        13.03092524015852    6.69431322126876    2.84930161496553
C        11.25238209033603    4.19006865486459    1.95653836107420
C        10.85351398270913    3.04234178768685    2.63193596046817
C        11.39374799826507    1.81520980704763    2.29453109977633
C        12.33863281375913    1.73395988743829    1.28456952559888
C        12.74315943943043    2.87856722281585    0.61386538869036
C        12.20183499287082    4.10749755794759    0.94233201379339
C         9.55559884320419    6.05591331349672    0.84684504065389
C         6.64058279259493    4.11075391104903    2.03054499241701
C         7.55104735746343    3.14586376144565    1.61249987041290
C         7.19500362452872    1.80966719510580    1.62242584385767
C         5.93405470830478    1.42921626163457    2.04973005742771
C         5.02705753810570    2.38792921546039    2.47343277890161
C         5.37798736780844    3.72457726528000    2.47400540309000
C         5.65599609201165    6.74358345713564    1.62075636656495
C         5.23000398714661    7.84544051535372    2.35403445186647
C         4.12017692386767    8.56222937543642    1.94332668471954
C         3.43622744226136    8.17817546440383    0.80184453906948
C         3.85660723372664    7.07580414713848    0.07204848344929
C         4.96371836976004    6.35496528725225    0.47703838403112
C         8.22679397963201    6.05886496771396    0.75651191005563
H         6.00493393243406    1.75143825596979    5.19821840307242
H         6.11085011346271   -0.69113908310455    4.86973888296043
H         8.28294701969354   -1.85544706192434    4.94166921421921
H        10.35483312913521   -0.57985576985013    5.34079808380969
H        10.25829002458764    1.86101447563172    5.66390149113864
H         5.94408537918379    5.59119515613217    4.95700298398960
H         3.81143192640225    6.15031211200545    6.07449351162983
H         3.16222981603203    4.97869424632713    8.14528344125410
H         4.62679185330650    3.23636061981590    9.09005882139718
H         6.75081736074962    2.66679315981214    7.97614819921794
H         9.52580975223874    3.17689411684945    7.57200306701181
H         7.06323869823250    8.82206715933517    6.08629077329305
H         5.05865183003726    9.62817482268126    7.29537387781807
H         4.33321581673270    8.49149093670339    9.36007987880108
H         5.61124482330371    6.57175336853409   10.22698004398702
H         7.60727847699693    5.77145756046325    9.03510745970505
H        10.97358381198886    7.82874189895544    4.91194153870993
H        12.79518243172438    9.43239121439168    5.37049775368086
H        12.99002484289360   10.46299043487154    7.60815021655598
H        11.37529714696220    9.89326824220699    9.37744658148242
H         9.55496232393447    8.28824226221430    8.92606118253144
H        10.13493936699968    5.48180532667975    8.26239272047435
H        10.60417895816432    8.44635748021280    1.25654316330641
H        12.39964901601816   10.13910058250686    1.23867576323369
H        14.58735262097629    9.62977018673937    2.25384946352030
H        14.98516021924752    7.43020842068422    3.29677452239121
H        13.19530614239027    5.72850095297839    3.30965489884442
H        10.11139259610846    3.11963106487833    3.42126647766049
H        11.07529407814651    0.92636861424197    2.81883932382804
H        12.76362800019101    0.77803357869609    1.01911913685043
H        13.48263931187613    2.81154414131385   -0.16978282326117
H        12.52177383162993    5.00115794074465    0.42429187943342
H        10.18001327414654    6.18277736916727   -0.03422993254616
H         8.53394554054504    3.44091888397462    1.26992750787894
H         7.90497783118101    1.06543134134302    1.29387051861273
H         5.65800732327725    0.38603907462798    2.05197544199265
H         4.04334049671269    2.09289145087013    2.80729131347416
H         4.67225270736096    4.47347953282520    2.80866842414385
H         5.77711708437996    8.13297261531592    3.24490115264399
H         3.78936474536516    9.41923686979468    2.51059208023782
H         2.57119970074891    8.73701696528773    0.47901998714499
H         3.31714802796630    6.77826924500529   -0.81452342387286
H         5.28721827372003    5.48654582278462   -0.08125985811829
H         7.72866856399921    6.21272194912735   -0.19687551451980

