100
CSD_code = NETFUQ | q = 1 | S = 0 | Stoichiometry = C36H54ClN8Zn(1+) | MND = 5
C         0.08155998115528    1.88077894131446   16.86488901887487
H        -0.63652798370515    1.56671089999264   17.63195545068206
H         0.53896448134444    0.97906683392963   16.45595979400013
C        -0.64689656762640    2.60375386775956   15.73707773542495
H        -1.38900945303410    1.92366211808851   15.29801933865949
H        -1.16977099512830    3.48066691325094   16.12018780551165
C         0.57644739759157    3.61568839250855   18.46556683175889
H         0.55634610452521    3.11781368665550   19.44242070328475
H        -0.45066688913024    3.85649062377528   18.19270036116170
C         1.37023621713409    4.91533755448139   18.57350968191056
H         0.89278546178274    5.55697372330891   19.32245999566145
H         2.38739951394136    4.69772304537549   18.90023109598231
C         2.24006751435966    1.93281302064172   17.96063017210001
H         1.87597058478356    1.10915017945339   18.58807391926218
H         2.86557459341592    2.58308067718778   18.57144320337260
C         3.10158355524017    1.36551460745669   16.82973038054301
H         3.95995637438604    0.85506792169019   17.27760953584587
H         2.53794895878167    0.61943526001301   16.26474913069618
C         2.81584137210979    9.61665740423003   14.63525052874642
H         3.47186189877551    9.43692660495715   13.77212459462047
H         2.47263046174029   10.65012251903558   14.57429397261681
C         1.58833611035165    8.70439259829119   14.52789837176514
H         1.89650095082673    7.67209106721889   14.74448167305893
H         0.85915448367416    9.01279296294325   15.28123420362425
C         3.90871245840488   10.64139625437081   16.54357993388389
H         4.11756029015713   11.43930964255725   15.81702134038736
H         4.81960705902046   10.48594689565897   17.12374792152945
C         2.79380807722658   11.09692074258863   17.49138558576831
H         2.91375788033297   12.16813372034039   17.72009284463447
H         1.83080852064010   10.96225424647867   16.99520634752100
C         4.56890147652480    8.40806169639647   15.75964739425151
H         5.44238321134660    8.79423242019481   15.20569309040792
H         4.14938110985698    7.57733972531332   15.18873938657256
C         5.05078371849028    7.86683892413509   17.10578458136516
H         5.71128236957009    7.01639797042420   16.91750067447126
H         5.65266755271476    8.62337785941929   17.63526432156985
C        -0.31769388479311    3.67638333071200   13.55090101626992
H        -1.04559932363665    2.97179551002594   13.12481509781625
H         0.47511396948217    3.84597891088899   12.82015775848725
C        -1.00805947968353    4.98376548349218   13.83537817463295
C        -2.28409074647067    5.00924599554955   14.38782958513067
H        -2.80170773539327    4.08733346321864   14.61104408692048
C        -2.91906049783783    6.21700860697421   14.61811226139955
H        -3.90607855316669    6.23041593003257   15.05518503107350
C        -2.30451628584368    7.40279548790261   14.26296063159342
H        -2.81328956635158    8.34096673706997   14.42663427153610
C        -1.05233754853596    7.39761012705475   13.65909131863950
C        -0.40723685049055    6.18195204513953   13.46854842292501
H         0.56753857567852    6.15802531123122   13.00443737455718
C        -0.45443647428475    8.70524445811189   13.17838047261433
H        -0.76817555017134    8.85721688628393   12.13933962573928
H        -0.88303893788536    9.52216879518706   13.76895433320813
C         0.20019043594874    6.33179830230809   16.95859093872722
H        -0.62877710763050    5.62661116704542   16.87450917544993
H         0.33757003168441    6.79585206420729   15.98147982682303
C        -0.12222894997309    7.38009169804561   17.99036490442522
C        -1.25152548703848    7.28531333466777   18.79041449174020
H        -1.95460522336068    6.47726247554472   18.64451447218884
C        -1.48456317523336    8.23438628654219   19.77292564914352
H        -2.37153227241095    8.16847418948753   20.38435690143018
C        -0.57010589355419    9.24723509483275   19.99141360036551
H        -0.73890034329857    9.96318409858891   20.78224265404512
C         0.57032175111990    9.35062976661381   19.20058028608372
C         0.76327533157869    8.43426259148619   18.17984281645058
H         1.61224283768120    8.53969961874441   17.52483134043024
C         1.59713741018886   10.41483417835275   19.50994784886774
H         1.13487684274926   11.40847387474487   19.39712991251480
H         1.86737614051760   10.30937161663210   20.56574690072416
C         4.93860393020900    2.84625556092524   16.16067719216876
H         5.18805698571068    3.57908186417594   15.38994941702741
H         5.60515634785644    1.98121952923566   16.05398011803719
C         5.12035869263121    3.46710783776088   17.51597221799155
C         5.73105384627705    2.78503285797396   18.55914866262174
H         6.10766312756604    1.78341787521227   18.41111155797114
C         5.43343002541735    4.69465046898132   19.98522116142701
H         5.56774469002329    5.17312986450881   20.94391370112628
C         4.82353730697084    5.39291731814068   18.94805746975976
C         4.66810336104970    4.76304426658439   17.72139990539757
H         4.22028882046447    5.29975924335881   16.89805332749821
C         4.34819574781074    6.80987362669896   19.16134630666175
H         3.49723702999578    6.80010595880217   19.85242768415093
H         5.15799646390422    7.37261850427815   19.65780091048732
C         5.88130051654977    3.40084265845894   19.79145122868763
H         6.36132518488741    2.87158944825216   20.60002085246238
N         1.12860212249877    2.72796204987288   17.44039802658181
N         0.32010001201277    3.05677493696379   14.73712272720378
H         0.78189242651568    2.22049128504419   14.37687849975992
N         1.44383751399547    5.59173663714081   17.27478507757662
H         2.19751425278306    6.29610393833622   17.34368355472363
N         3.53752893333919    2.43429401658183   15.92578283079787
H         3.52545191749980    2.08367704920633   14.97010718526721
N         3.51832681734478    9.40167686910697   15.89253847642995
N         0.98001754015877    8.84846666430675   13.21932763889000
N         2.79720729930469   10.27832126277674   18.69704922894964
N         3.92040261454316    7.43393861730732   17.92114407316416
Cl        2.93375499275972    5.12013321609115   14.19742772879647
Zn        1.97069050929569    4.06626487580778   15.84624300591678
H         1.43853806934450    8.25069242848109   12.54258078730716
H         3.61557127500465   10.51836313527735   19.24771843671274
H         3.39878033510930    8.28424717619255   18.14365890496713

