111
CSD_code = NETFEZ | q = 1 | S = 0 | Stoichiometry = C54H52CuP4(1+) | MND = 4
Cu       12.88742601479747    1.98867052341032    2.93080596895593
P        12.62082902586109    2.81436596595223    0.80291732374377
P        12.60552257802002    3.96268269864369    4.06627601938618
P        11.75762682177584    0.18215886926661    3.83703271373796
P        14.90006362346586    1.07987462501005    3.66183954267944
C        10.86246709208175    2.72185929077129    0.32715476846450
C        10.12649920506513    1.66962993238056    0.86640089256363
C         8.78349216590192    1.52463036614868    0.57519493580339
C         8.16101271172983    2.43487406062442   -0.26288367397301
C         8.88907821507304    3.47663552933886   -0.81431634749585
C        10.23412678138276    3.62274504106703   -0.52591285927747
C        13.43694569634794    2.11148095237775   -0.66735126344031
C        12.86551703888521    0.99214104413697   -1.26996029024364
C        13.51646974079554    0.35002514286819   -2.30593573747439
C        14.74830406851593    0.80846468553948   -2.74439790093178
C        15.32756084118815    1.91222509364867   -2.14080387967362
C        14.68271632313189    2.55756095173243   -1.10077976015075
C        13.00031880080720    4.62068664130396    0.66385644455499
C        12.28919244854788    5.47491919317122    1.71655367090968
C        10.87128643495598    4.31519269833956    4.49019562370285
C         9.88507217596960    3.57134210238824    3.85311723682856
C         8.54855422184741    3.82727839947514    4.10010597283830
C         8.19472034840068    4.82353619707748    4.99416377738252
C         9.17583351403847    5.56425749255189    5.63735604610635
C        10.51241896268957    5.31768714271160    5.38698075753730
C        13.46831172416832    4.22612804569350    5.64052699937088
C        14.68790108493898    4.88608074913259    5.74389983211791
C        15.35553668568666    4.91827722487095    6.95568434834903
C        14.82517517249240    4.28324208806997    8.06588296345776
C        13.61646352213463    3.61076008916493    7.96632924192862
C        12.94690620788735    3.57543810444397    6.75934534789366
C        12.98963953440967    5.47898657757294    3.07814185691738
C        12.25906131243035   -1.29839749911037    2.90506055150934
C        12.91298690140938   -1.11059775357115    1.69297541131939
C        13.35297361025244   -2.19615934158214    0.95796520099517
C        13.14420290871937   -3.47827511649573    1.43618254388066
C        12.48221092871211   -3.67356447044889    2.63967470289024
C        12.03693878161041   -2.59118454120388    3.37445142871046
C         9.97296815331924   -0.07852852854281    4.09856705162286
C         9.34317841547986    0.62238235646717    5.12421863756389
C         7.97729338408625    0.51643604590057    5.30266596459210
C         7.22616317700965   -0.27845717677612    4.45162005548001
C         7.84511295150820   -0.96223062728946    3.41812532673160
C         9.21209299676738   -0.85763281901280    3.23275147181895
C        12.38957602524885   -0.22289589100154    5.53806784479157
C        13.84278739194674   -0.68585675471431    5.59278720597459
C        15.83616410190615   -0.15532670911565    2.70134760907261
C        15.96437394771787    0.13582936523393    1.34419294767970
C        16.60541655024369   -0.74130199264944    0.49380535540046
C        17.11399600234729   -1.93137283157902    0.99025211815158
C        16.98327016822028   -2.22956966588971    2.33567408366328
C        16.34789159793886   -1.34883041482656    3.19426988212134
C        16.12311221783514    2.42805661715428    3.77000847200460
C        16.04429036727248    3.37957178253531    2.75687921692023
C        16.91495292886484    4.45139798865741    2.72324011938881
C        17.86914339185773    4.58941925095838    3.71871066967582
C        17.94737092153439    3.65137113977864    4.73465036331127
C        17.08302953087394    2.57093076944732    4.76425820131513
C        14.86301065781579    0.43336722299515    5.38602181599619
H        12.72885707189601    4.94796395585070   -0.34484095617255
H        14.08129454409635    4.74839643185748    0.76616026396855
H        12.25602163206769    6.50486690980625    1.35076587236590
H        11.25283481924752    5.13904043208710    1.83403939835845
H        12.66280134645636    6.34392217242509    3.66657836160402
H        14.07254985619495    5.54032548687479    2.94189957034834
H        12.26657664895825    0.67707106418113    6.14910699013958
H        11.73992792483359   -1.00178520842935    5.95249079672562
H        13.99987701668016   -1.47455646006297    4.85117583295751
H        14.01639793865782   -1.12354316509852    6.58086375375380
H        15.86200628904132    0.07492251048970    5.65534485363620
H        14.62096277815758    1.28980626608507    6.02771092132004
H        10.62150561952098    0.95978355700449    1.52351309370367
H         8.22486812729035    0.70808854928811    1.00778896823353
H         7.11088899301524    2.33167821713613   -0.48925812463499
H         8.40641342487872    4.18122584778440   -1.47470469779184
H        10.78275234241311    4.43797390987374   -0.97248132682554
H        11.90294799580694    0.63326417860064   -0.93162966920043
H        13.06067881372211   -0.51020975774850   -2.77299574945480
H        15.25564726474843    0.30712194047909   -3.55445988222714
H        16.28832445714536    2.27189159940399   -2.47797222870692
H        15.15542714701077    3.41114225953157   -0.63644530914906
H        10.17467390231033    2.78704798502931    3.16380962298297
H         7.78989145534449    3.24514007396681    3.59851241350818
H         7.15329580709751    5.02475334067719    5.19390910476150
H         8.89560617113793    6.33877095784522    6.33541745429820
H        11.27827464552737    5.89215517010003    5.89053452680100
H        15.12051227384104    5.37840956995163    4.88614981104360
H        16.29680970788925    5.44158888296307    7.03069176975649
H        15.35067574813953    4.31121196181601    9.00799550865796
H        13.19962268075393    3.11462681984593    8.83044424835525
H        11.99892901045668    3.05815853129659    6.67262547280008
H        13.07429138109556   -0.10115046630778    1.32750704225825
H        13.86180978202799   -2.03737064498593    0.01908956394974
H        13.49188912987110   -4.32904073511332    0.87046123735633
H        12.31259777922816   -4.67527467661054    3.00523264562619
H        11.51110521581960   -2.74691982529500    4.30628524768459
H         9.92613840093528    1.25333255771615    5.78127379951834
H         7.49707116836677    1.05716837469521    6.10447442471489
H         6.15942121100722   -0.36264261729545    4.59217183003033
H         7.26054171663103   -1.58095333689942    2.75313647147540
H         9.69167518690179   -1.39097683210949    2.42283414172128
H        15.54903412532659    1.05843469596888    0.95833838708011
H        16.69981008335327   -0.50100766972152   -0.55498723227500
H        17.61000938054433   -2.62581334857720    0.32961314666923
H        17.37981812314617   -3.15620076165083    2.72307776993739
H        16.26231664747216   -1.60327375506629    4.23977057831664
H        15.27855122122066    3.25736430231500    1.99711822722462
H        16.85337156329649    5.18323872094331    1.92983750868663
H        18.54891104989936    5.42766469072719    3.70310383022647
H        18.69142037184235    3.75922463560837    5.50953287920579
H        17.16530490163597    1.85022477652694    5.56304300950988

