67
CSD_code = NETGEA | q = 0 | S = 0 | Stoichiometry = C30H22FeN12S2 | MND = 6
Fe        5.05903724308689    4.25192581191150   -0.00013084857763
N         3.08085845748079    2.19882576244385    3.67028565189126
C         3.45157168526640    3.47242249182265    3.58916465363648
N         4.07350386813500    4.16595724871785    4.53691934960622
C         4.41463746665074    3.50218631203594    5.62646176622993
H         4.93574759210935    4.08129297066985    6.37772056746744
C         4.13006824918645    2.15629300255216    5.79919779825285
H         4.43632263088038    1.61495400913358    6.67718946996808
C         3.43027209280279    1.55091528712530    4.76667558109947
H         3.13421491011923    0.51057585785401    4.80437203769193
N         3.19034785618786    4.12738409550256    2.40259740675528
N         3.27151555107697    3.47541977953078    0.14249015874904
C         2.63397459132443    3.43078937050121    1.31638833933697
C         1.42454327036969    2.76519395376413    1.48851175923168
H         0.96295431610702    2.74826824979393    2.46113904337219
C         0.84251716251065    2.13777932842505    0.40262944987427
H        -0.09225150879733    1.61040536707617    0.51019880003959
C         1.47604828538020    2.22990161182913   -0.82990073394174
H         1.04658062761888    1.78629707368427   -1.71349921966622
C         2.67600140961498    2.90488288898779   -0.91081572620962
H         3.19125894322935    3.01478565974523   -1.85324581151918
N         4.39238846234443    5.70053440538160    1.12876701742535
C         3.64424699518079    5.44288599208046    2.20594105589080
C         3.26098892934013    6.43081771800433    3.10725582118828
H         2.67004941607046    6.16326523365538    3.96670582329082
C         3.65035715803823    7.73743856668661    2.87774360784505
H         3.37055355538658    8.52162134355005    3.56349381223338
C         4.38249700308516    8.01541613935032    1.73073058249261
H         4.68258597209184    9.02228314290718    1.48967149039327
C         4.72450612820685    6.97480897214869    0.89278584979279
H         5.27690264272120    7.15147920574642   -0.01786289312167
N         5.64709189107989    3.28329658772937    1.51637739702661
C         6.13358149069967    2.64873897117506    2.37384514503411
S         6.76681465624554    1.79628010374503    3.55097596540314
N         7.03734694495455    6.30483456435253   -3.67029189390047
C         6.66653893477705    5.03126555842508   -3.58914426084020
N         6.04455223452662    4.33776445722728   -4.53689156464146
C         5.70343180255357    5.00155519659233   -5.62642950321148
H         5.18223598500473    4.42248983332917   -6.37765909326002
C         5.98805068667977    6.34743794499505   -5.79916204853828
H         5.68177376449195    6.88880576959185   -6.67712896615449
C         6.68794250906314    6.95276420114740   -4.76667519091049
H         6.98402468492739    7.99309873586104   -4.80436489401704
N         6.92781969694294    4.37627188297412   -2.40260248836141
N         6.84671045968819    5.02810423292828   -0.14246936944058
C         7.48421519810399    5.07282629043984   -1.31638324178570
C         8.69360719701568    5.73848434000285   -1.48851772102987
H         9.15520223049908    5.75540604344082   -2.46114257578232
C         9.27561732028333    6.36591047786145   -0.40263702198095
H        10.21042162014673    6.89322594233935   -0.51018826241369
C         8.64209548713117    6.27376229252210    0.82989878633659
H         9.07157075846177    6.71734707119104    1.71350320929855
C         7.44219099630973    5.59869038240050    0.91083362997196
H         6.92688194836140    5.48887057702423    1.85324539195000
N         5.72585674322676    2.80314261811701   -1.12869278927855
C         6.47392457786330    3.06077644789252   -2.20592162107471
C         6.85711032176329    2.07285336266946   -3.10727039424201
H         7.44805694938238    2.34039579188724   -3.96672015707253
C         6.46772548202478    0.76623968071660   -2.87775813367924
H         6.74756241719898   -0.01795454940020   -3.56348464264303
C         5.73560894703926    0.48827042315554   -1.73072443512989
H         5.43552628946326   -0.51859840586585   -1.48966011790166
C         5.39368148654994    1.52887295667620   -0.89273381293317
H         4.84125309952629    1.35221488414445    0.01789950853077
N         4.47092669306194    5.22047045012571   -1.51663065616780
C         3.98433695626550    5.85483237343675   -2.37408020179604
S         3.35171057588060    6.70834565652908   -3.55079563608325

