109
CSD_code = NETJED | q = 0 | S = 0 | Stoichiometry = C46H32FeN30 | MND = 6
Fe        1.85374479974660    4.78973472122731    0.00013434459067
N         1.23983326514738    3.26122849377540    1.08541071913666
N         0.04683784925760    5.54286263576396    0.25194250908103
N         0.03163620825202    4.73544443016330    2.46552369254817
N        -0.01274230147357    6.60726296885414    3.80257312738678
N         0.97485981235934    4.61212618260003    4.56078042055905
N         1.07475244834719    6.55852544117207    5.90211806781483
N         0.11271031955977    8.47754769269229    5.08633582790773
N         0.30772838481566    8.69270776826344    1.63341894063797
N         2.11942092378844   11.13862740134917    5.60815559691564
N         1.99113413075067    4.58073920951698    6.60208544282086
N         3.44627291586723    3.05151040346712    3.84354172089045
N         1.12691276386957    7.05682607109432    8.84186256405524
N         2.48516395823824    5.69172126504664    1.55388682849542
N         3.38278072379101    6.74290654671146    3.52817966042825
N         4.44970250468072    6.23099615738403    5.65010858300511
C         1.60738433888544    2.01255898501415    0.78218887625886
H         2.15343667538317    1.88713869574564   -0.14056709485769
C         1.31276516233991    0.92345495886720    1.57766872058624
H         1.64851974313673   -0.05703921867732    1.28287843999545
C         0.58750840501459    1.11906741020447    2.74385360835703
H         0.34089764595149    0.29365586979620    3.39387365464804
C         0.15964614412613    2.40046656801431    3.04034478834720
H        -0.43288664131777    2.61077199024037    3.91508667129587
C         0.50757733524631    3.44013085164094    2.18676175253657
C        -0.56886578722004    5.48316416234798    1.43410697262739
C        -1.79711498960830    6.08461284097690    1.67901289904910
H        -2.24143856916329    5.99894283107843    2.65690165908925
C        -2.41795778115544    6.78106889695130    0.65828149803805
H        -3.36844961614895    7.26514813719796    0.82178515806015
C        -1.79807705970585    6.81470907892979   -0.58208175163549
H        -2.24719602895298    7.32122494301049   -1.42038635521341
C        -0.58059719961113    6.18356133684693   -0.73948564255241
H        -0.08700953580187    6.17911686144951   -1.69935723028956
C         0.33779548783495    5.33719833426099    3.65419345567239
C         0.40858089509670    7.17436058222850    4.93370699124368
C         1.33761255567533    5.28144413249253    5.65715636633209
C        -0.58491655925781    9.16103360069610    4.01897554356781
H        -0.47967657571102   10.24195981147532    4.16266228046032
H        -1.65375952149226    8.89669658836682    4.02207899332958
C        -0.06203789347206    8.83228583112886    2.70626836759401
C         0.51700177144567    9.21310331389120    6.26185404830639
H         1.00048009066943    8.50976628494413    6.94834914368217
H        -0.35883165028117    9.64985626557963    6.76278325731644
C         1.43654778560790   10.27720681772786    5.91948604025232
C         2.47902502743364    3.26754195073817    6.23857043829418
H         1.66385288517046    2.53322459887774    6.31708171102129
H         3.28862877349747    2.98160202428105    6.91654650417673
C         2.98591528429121    3.19972366242863    4.87974378547502
C         2.63439685650099    5.30764800045349    7.68238550260121
H         2.94332768955505    4.60046801731430    8.45798699003168
H         3.52061832840295    5.84212023808583    7.27473447999856
C         1.75870614865712    6.28501557290828    8.27874921007143
C         2.94663308827591    6.11730026642546    2.53713419377649
C         3.94229673614700    6.41188006695567    4.62453943956941
N         2.46758601238252    6.31849044953164   -1.08494712773822
N         3.66068551144041    4.03672785779728   -0.25180422709637
N         3.67578767307786    4.84459563534642   -2.46527178916612
N         3.72068857350732    2.97318902971323   -3.80282600797314
N         2.73240794576846    4.96821200238932   -4.56045416966397
N         2.63335491219432    3.02221496642419   -5.90244398633426
N         3.59592217694285    1.10325012424836   -5.08706481300237
N         3.40074120587809    0.88755478272683   -1.63416484380992
N         1.58919762703280   -1.55731511305472   -5.61163417121704
N         1.71607017550512    4.99979119546313   -6.60176407702466
N         0.26094818588042    6.52765278588985   -3.84238950675824
N         2.58115748711143    2.52458988137955   -8.84223349026501
N         1.22253818009646    3.88767324965083   -1.55363043069332
N         0.32560710141124    2.83605448856884   -3.52800812449716
N        -0.74184529366527    3.34770267619237   -5.64973180920739
C         2.09999146432982    7.56707736908367   -0.78147889804661
H         1.55395687651530    7.69231024834416    0.14130662751522
C         2.39452998275223    8.65634389548051   -1.57676580654237
H         2.05876359952173    9.63676279221784   -1.28174328346678
C         3.11972009793026    8.46097645697713   -2.74303228216360
H         3.36627285011968    9.28652151072388   -3.39290420751402
C         3.54760942366245    7.17965077440576   -3.03979108702571
H         4.14003172645327    6.96951280054103   -3.91465052988133
C         3.19979856283698    6.13983219739413   -2.18634381159385
C         4.27643971719658    4.09683839134891   -1.43393419445427
C         5.50492325617036    3.49586436792867   -1.67884925069162
H         5.94933265261899    3.58193808598601   -2.65666377946571
C         6.12592099875950    2.79939729738748   -0.65821415717401
H         7.07662912248952    2.31574011382355   -0.82171715747922
C         5.50591679585185    2.76521988019640    0.58207100766779
H         5.95512287602169    2.25863761642954    1.42029099873523
C         4.28822831578792    3.39595752216262    0.73951691579255
H         3.79458473659434    3.40004542061469    1.69936457613605
C         3.36975244875856    4.24308905147109   -3.65408535197348
C         3.29955584764537    2.40627795319639   -4.93412123785923
C         2.36998674243903    4.29912023836174   -5.65708591617754
C         4.29360657359649    0.41973896001034   -4.01976363842034
H         4.18816344688293   -0.66117021993810   -4.16339593137143
H         5.36249954278683    0.68392175842929   -4.02316711258048
C         3.77105318059284    0.74852920035809   -2.70690837605446
C         3.19274617222687    0.36802815219253   -6.26315512585843
H         2.70993403563672    1.07153791937213   -6.94995235769407
H         4.06915853925490   -0.06852429051421   -6.76324841999210
C         2.27281726327355   -0.69617932588835   -5.92209566364174
C         1.22733066609746    6.31254618603651   -6.23781443691520
H         2.04191305190301    7.04752459741228   -6.31618539208802
H         0.41738077508323    6.59811714425106   -6.91554945851679
C         0.72067714855031    6.37954618733204   -4.87888173533522
C         1.07310625023414    4.27287361982736   -7.68222382011394
H         0.76370858287067    4.98009945304591   -8.45759947137211
H         0.18723107507512    3.73786112215380   -7.27448866750764
C         1.94924694196753    3.29615247995921   -8.27896887223186
C         0.76152251857372    3.46189494874344   -2.53700131661662
C        -0.23409948606705    3.16694556089619   -4.62431221696557

