67
CSD_code = NETKUV | q = 1 | S = 0 | Stoichiometry = C24H38N2P2Rh(1+) | MND = 4
Rh       23.25703355209804   10.34809521561401   -0.42021264913716
P        22.41815725951363    8.84588679210470    1.00567891539053
P        23.60293470676377   11.58193802526933    1.41369068329252
N        23.31984214472071    8.97832462168746   -2.16669100893590
H        22.76382492368818    9.27757909861575   -2.96441882299750
H        23.02716008373527    8.03528821343104   -1.92484236836472
H        24.29293722492669    8.92430459804758   -2.46521438030865
N        23.64962919484144   11.98064890755137   -1.87646935523685
H        23.78674083868554   12.87806486275157   -1.41933341931008
H        22.82038025274420   12.06459277688595   -2.46282813180823
H        24.44776795916983   11.82093119419522   -2.48684508347228
C        23.11639006022092    7.15113381783763    1.23705250577833
H        22.33598223520666    6.44676766204365    1.54314121692777
H        23.58580858672909    6.76571498512149    0.32988487257081
C        24.11097611144339    7.33028533998228    2.34814848451482
C        25.16617190035350    6.46966953976100    2.59476051292276
H        25.33745474346237    5.62354203830215    1.94608331861256
C        25.99621323625728    6.69489304743153    3.68109136441336
H        26.82237529013713    6.02873695759190    3.87366935712726
C        25.75629615389634    7.76381478647667    4.52681559035592
H        26.39002233738551    7.92632328332030    5.38480281350454
C        24.70220114705850    8.62909230865220    4.27915246308207
H        24.51651216189339    9.44611334002655    4.96153423947345
C        23.88937610583261    8.43092107111466    3.17457527506873
C        22.71094349848831    9.29448562229567    2.79362225221916
H        21.85303001342129    8.97025728987823    3.39256463465938
C        22.92495893301237   10.79724257521761    2.96875290877140
H        23.62010278981644   10.97521905839945    3.79557241226070
C        21.66752908450453   11.58291761970624    3.24885036566748
C        20.67121203226514   11.19321910144811    4.13019162586229
H        20.76082584690777   10.27362490508158    4.69069639561617
C        19.55652831219879   11.99571975025381    4.31298246164461
H        18.78093096395756   11.68508797636746    4.99569948949029
C        19.43739040446482   13.19206133763819    3.62688212740270
H        18.56515333272151   13.81075374843693    3.76757934409317
C        20.44551951554540   13.60427819392033    2.77067793811297
H        20.36513763551763   14.54722388262622    2.25073784951066
C        21.56129371440572   12.80528585603688    2.58879676550763
C        22.73231292346561   13.18248604591410    1.72764303821778
H        23.37987918477295   13.88419491632111    2.26251581206404
H        22.41113449647348   13.65881851686106    0.79875384679371
C        20.56479339780319    8.65517639051916    0.75393018407714
C        19.83637623732700    8.04499258746281    1.94645520619109
H        19.78031030234611    8.74779445117632    2.77392541551127
H        20.31307503888153    7.12844445130592    2.28974207764642
H        18.81557018037539    7.79977527468296    1.65826319441693
C        20.37074064927069    7.78106740778251   -0.48649595723517
H        19.30915040589051    7.65914820664361   -0.69380198645609
H        20.80126061819528    6.79075397778891   -0.34943609549013
H        20.82641934572562    8.25465827499707   -1.35406607150496
C        20.03817048669443   10.06241213933203    0.46742007452975
H        19.00157086181152   10.02454215536628    0.13952773042519
H        20.64136549839353   10.53370547727823   -0.32003549257483
H        20.09437512183092   10.68566130844634    1.35713854467844
C        25.43597533756295   11.88697317805385    1.70069433312636
C        25.77632724661335   12.35808050790273    3.11084040182404
H        26.81765582594396   12.67413609377647    3.14268347102085
H        25.66016514214136   11.55691773636784    3.83589846343887
H        25.16348512993949   13.20369983923337    3.41769462194812
C        25.88419307159520   12.93275873485552    0.67780166429834
H        26.94102663746803   13.15624082350676    0.81208566043473
H        25.32898206008097   13.86312399411005    0.78634348314352
H        25.75232924919575   12.54875717977119   -0.33152121956252
C        26.12515221106450   10.55588412070007    1.39621476691472
H        25.78107829874196   10.17057731504922    0.42752558147294
H        25.89173337425403    9.81406467409789    2.15650178525797
H        27.20504737814541   10.68221481957415    1.35972450110342

