155
CSD_code = NETMAB | q = 1 | S = 0 | Stoichiometry = C52H96ClNP4Re(1+) | MND = 6
Re       11.29026431458283    7.65816093758878   -4.39175935941097
Cl        9.51005477220999    7.69973879233065   -2.90537804031808
P        12.12786375206954    9.82931860507029   -3.42435110883570
P        12.34256902468159    5.98499572524782   -2.74866482573876
P         9.98687452168106    5.62098669081626   -5.06808741303824
P        10.27379176170162    9.34205304370333   -6.03762218542190
N        12.64853050797360    7.50489498114441   -5.45346483151021
C        12.19343747837875   10.99526915784551   -4.84973799105440
H        12.49148528476925   11.98929666723450   -4.50670489404106
H        12.96643633703225   10.59845453818103   -5.50978907951066
C        10.85870324507157   11.04187913541554   -5.58458692806005
H        10.94364168724946   11.63148566132710   -6.50254013199149
H        10.09862198849969   11.50565150008550   -4.95249482551761
C        11.64911935417876    4.35063373812735   -3.25628679447159
H        12.21814294132091    4.02814620910805   -4.12866873168647
H        11.79339047681210    3.62080814897319   -2.45672579111246
C        10.17647752122459    4.48936438868233   -3.61822463877726
H         9.63212046910716    4.92800312010801   -2.77748179098983
H         9.72713439637625    3.52094577469967   -3.84899152562711
C        13.86150473536550    9.89967390549288   -2.76493088199413
H        13.87940546712982    9.16875338589619   -1.94577326649805
C        14.33919831747071   11.24343783249957   -2.21589399391659
H        14.35458960546510   11.98958781000505   -3.01199467423057
H        13.68179927024382   11.59844818023947   -1.42213044129500
C        15.74943590179482   11.08712307835109   -1.64397650102476
H        16.09601647996363   12.05212776283994   -1.27057408888690
H        15.72024597382649   10.39500756720705   -0.79870930354074
C        16.71833537822915   10.55898399402738   -2.69632919653608
H        17.70719116577941   10.43136957432286   -2.25405775989447
H        16.80682534481857   11.28514539753371   -3.50672495583387
C        16.22063658877905    9.23074532261658   -3.25949937538382
H        16.19766934384263    8.48629787893088   -2.46030495905569
H        16.90294295514098    8.87790478535650   -4.03381341467077
C        14.82463733827919    9.41016998781597   -3.84825344839358
H        14.44374478389576    8.48067792749871   -4.28241146630297
H        14.88886533567520   10.15142198728775   -4.64560356148190
C        10.94234704878653   10.65064263966526   -2.24664966199836
H         9.95618178282755   10.33987812761064   -2.62432968727420
C        11.10100193707215   10.05751075158307   -0.84714607645535
H        11.06526966688092    8.96930479175429   -0.91711013525719
H        12.06858592984498   10.33795196401353   -0.42443419826070
C         9.98469822141574   10.54737216679790    0.07052412560586
H         9.02341075973881   10.18868262915530   -0.30568831174731
H        10.12457667969410   10.13745770806506    1.07288575669762
C         9.97221315257537   12.07068154019683    0.12741019997252
H         9.15420159976261   12.41226304794866    0.76305830786540
H        10.90710758914095   12.42687462275691    0.56631405298846
C         9.81511427282911   12.64942793861163   -1.27470831890512
H         9.81602856665386   13.73999511555612   -1.23092338952292
H         8.85468065243104   12.33303038218244   -1.69009466760755
C        10.94765080043794   12.17853848716021   -2.18907884117983
H        11.89386259943070   12.54801880219192   -1.79467891836287
H        10.80393117994897   12.61572482212181   -3.17825974775148
C        11.85809259584281    6.16177087448844   -0.94614527636372
H        10.94976432005520    6.77927980858493   -0.97239862269677
C        11.48988911479526    4.87014897530328   -0.21266671651080
H        10.68218895927383    4.34688569159667   -0.72774789359500
H        12.35055025539450    4.20134994521236   -0.15351678360794
C        11.01528115345944    5.19776025213616    1.20417252780091
H        10.10822677789861    5.80495308482335    1.15027111472567
H        10.76410798551706    4.27011416670136    1.72140632522328
C        12.08414081461486    5.95735489058177    1.98077598879431
H        12.97638455232825    5.33519474959787    2.08115991567222
H        11.72181654730884    6.18541282513700    2.98392488045713
C        12.43798201182851    7.24639480326192    1.24824587729584
H        13.21671864413274    7.78625968479548    1.79020677357790
H        11.55575672526429    7.88857412620473    1.20310204430979
C        12.92449332407335    6.93211190367669   -0.16458779930342
H        13.83892458077557    6.34211625881182   -0.09276076539347
H        13.16444491233576    7.86053481409297   -0.68815120519446
C        14.17146910557326    5.66575295435336   -2.81949684060311
H        14.63202987773984    6.57703982431413   -2.41863093540609
C        14.62772035389165    5.50575722747840   -4.26985599575070
H        14.26569554179946    4.55666784366506   -4.66595201909234
H        14.20294684082515    6.30796275258432   -4.88423909254777
C        16.15120969915546    5.49136535477674   -4.33683189915002
H        16.47160078016763    5.38711601585537   -5.37389942085933
H        16.54746612318662    6.43281160033129   -3.95635516813023
C        16.69477160498005    4.33235560841456   -3.50473903358975
H        16.36849729622914    3.38653563047418   -3.94256608486980
H        17.78528452510382    4.34392466011656   -3.51523194190190
C        16.19420517473686    4.42172300266036   -2.06642367610118
H        16.59381954603608    5.32447096964212   -1.59865386285352
H        16.55386929886537    3.56416667425922   -1.49496247768933
C        14.66595193540436    4.46047003071329   -2.01706143167103
H        14.34517217858951    4.50564689280993   -0.97635922201743
H        14.27240145493796    3.53957523528946   -2.45105714653369
C         8.12964083754017    5.83686455451464   -5.25381509007874
H         7.95168311939819    6.87198867663126   -4.93210786223116
C         7.64458395490453    5.70488042883081   -6.69869541411274
H         8.23370972528342    6.34471734479137   -7.35896905929766
H         7.75376711017343    4.67305856589403   -7.03610950119823
C         6.16906815082807    6.08750515299217   -6.80541332717215
H         5.84270870408576    5.98602703519069   -7.84230843706861
H         6.03438559046506    7.13280904565543   -6.51566143094630
C         5.32305311263999    5.20123145989067   -5.89930293418748
H         4.27441573812802    5.49558399072545   -5.96096382187825
H         5.39842177396962    4.16336899602940   -6.23115518976903
C         5.81073306926718    5.31343008982149   -4.46008954753407
H         5.22270192934070    4.65964441721444   -3.81367786064124
H         5.67356101505015    6.33884182068083   -4.10723701558793
C         7.28765381676318    4.93581961363460   -4.34672638813544
H         7.41376029141053    3.88839623763016   -4.62956488064871
H         7.58632090813402    5.04905528446867   -3.30407908672571
C        10.51794897206511    4.57635006281442   -6.52009651524107
H        10.00537402252730    5.03611593385987   -7.37238447992130
C        10.10153984957783    3.10667798353975   -6.46460836216236
H        10.68768280737734    2.57539844304450   -5.71201740621837
H         9.04485912957789    3.00061988263196   -6.20879564655057
C        10.36416719704290    2.47186233493604   -7.83094102004787
H        10.07943856653925    1.41848496631967   -7.80543205314384
H         9.74653661698439    2.96527972951508   -8.58498278752292
C        11.83579739651847    2.60038715737051   -8.21626300565447
H        12.44381559628483    2.02545686877982   -7.51415137761333
H        11.99169195416045    2.17943587587204   -9.21020691412309
C        12.28256440380556    4.06110157906285   -8.19360675295388
H        11.73787405522931    4.62025459647531   -8.95617043577575
H        13.34639187146682    4.12602900804400   -8.42533852785197
C        12.01467499815779    4.66286404229194   -6.81658802139559
H        12.35600011272263    5.70158232036808   -6.74954198955794
H        12.58035110231783    4.08632165743722   -6.08574280005762
C        10.88703099085437    9.20571781522088   -7.78940527277928
H        10.45911131031692   10.04438210077293   -8.35106158135099
C        12.41022321114236    9.30097800318669   -7.84548754703994
H        12.82449727636208    8.56961375686972   -7.13868855121222
H        12.73280042205332   10.29919441884110   -7.54746584322118
C        12.93575052762855    9.03100762740958   -9.25348568775477
H        12.57646123050852    9.80870805262053   -9.93226728836889
H        14.02529018923122    9.07471281707693   -9.24228900651925
C        12.47178229544698    7.67090905182405   -9.75481925222206
H        12.85688711638938    6.89457431420812   -9.09263881087725
H        12.85805684102061    7.48937376458658  -10.75844888619381
C        10.94961309826274    7.62709018535847   -9.76595300043644
H        10.56912310785386    8.39085271825213  -10.44827993939110
H        10.59882255570454    6.65842086533536  -10.12725248510664
C        10.40285280849342    7.87862200299560   -8.36477489276293
H        10.74637001195631    7.09294768220385   -7.68584731863593
H         9.31027787967704    7.86972269265729   -8.39960879032796
C         8.42854881518034    9.56228416984820   -6.20092198991426
H         8.05248512358237    8.56548848608787   -6.46445290241299
C         7.79256129382117    9.97631369051060   -4.87099861422665
H         8.09192737778855    9.29265068538547   -4.07561053974470
H         8.12169545113029   10.98122218004709   -4.59394485922129
C         6.27090575189324    9.98918904237547   -4.98260751160055
H         5.90735025430244    8.98380670315109   -5.20979684696592
H         5.83750210843331   10.28773799278229   -4.02602767042876
C         5.83109656935708   10.95046849425143   -6.08050842866365
H         4.74479153076634   10.93409395120015   -6.17780547197482
H         6.12638568089704   11.96769459727546   -5.81311142031586
C         6.47626216942257   10.56545907406181   -7.40713308147084
H         6.18319078207922   11.27477816650578   -8.18282061330070
H         6.12156185736033    9.57724823926579   -7.71078092728279
C         8.00171833077207   10.54121713385169   -7.29725134119806
H         8.36304840953727   11.54454037510358   -7.06129616195184
H         8.40939924872572   10.24745612826891   -8.26463497119239

