74
CSD_code = NETMOR | q = 0 | S = 0 | Stoichiometry = C30H38BrCuN4 | MND = 2
Br        7.63134242314015   12.90871426169222   -3.13246201937105
Cu        8.50520263166995   12.90879619357102    0.32345072397199
N        10.94119863550617   11.83842356184134    1.57386055631691
N         5.69693701239416   12.90865748478440    0.35249680580411
N         6.79229831895145   12.90860798726675   -0.42332474869275
C        10.22729914960130   12.90882022039684    1.17175856319122
C        12.08460794615253   12.23134631747481    2.21542800763675
H        12.78723427740981   11.52687848265943    2.60996056022928
C        10.54425412340578   10.49060440347392    1.34838621518268
C        11.01426982590109    9.83339015730789    0.20948768381188
C        10.59920118765831    8.52610829918838   -0.00388275757852
H        10.93379659712812    7.99541748675259   -0.88087239525739
C         9.74984888594259    7.89916592161995    0.88754543355387
H         9.43413395420248    6.88305005773520    0.70406812653125
C         9.29291378791306    8.56962228757081    2.00548416198054
H         8.61903010718076    8.07193783520710    2.68478959159223
C         9.67986992191184    9.87900918351474    2.25792934838422
C        11.89342652096414   10.53710649008453   -0.79696403226389
H        12.26377359399935   11.47092244951402   -0.36192583626899
C        13.11111582435026    9.69675945350460   -1.18369729031169
H        12.81899570613994    8.81055203588380   -1.73925132367258
H        13.65862957427247    9.38379578923559   -0.29709008465215
H        13.77766146785144   10.28252749627753   -1.81259176072794
C        11.05563492974901   10.89120952541881   -2.02848005602164
H        10.20986904718512   11.51469564397805   -1.74534512675376
H        10.67196898383142    9.99215989956092   -2.50406041104599
H        11.65682662899744   11.43555630550902   -2.75210982883358
C         9.15133563677299   10.61198947146084    3.46789818302157
H         9.63184814141549   11.59332391109898    3.53357485183810
C         9.47328949426779    9.85209932495322    4.75698269310687
H        10.54277856959483    9.66535882015554    4.83529253051146
H         8.95555257189971    8.89747109476415    4.78917315464547
H         9.16071159968279   10.43651280029508    5.61933296972904
C         7.64424629944242   10.83879946409421    3.32606571535956
H         7.11412177209611    9.89162000728104    3.27312223341205
H         7.42424504010158   11.40548436847693    2.42274650356237
H         7.26851375863807   11.39671859519292    4.18040286781455
C         6.38963495622030   12.90856007419854   -1.70865921734415
C         5.01243919530834   12.90847103376390   -1.78289986853150
H         4.40087419679619   12.90842165991028   -2.66157970709034
C         4.63594084770133   12.90838965377340   -0.43881906842385
H         3.64779304280856   12.90830721628038   -0.02068495518920
N        10.94126703271596   13.97917390516692    1.57383312550257
C        12.08471270880239   13.58619075017895    2.21531684258792
H        12.78736746804850   14.29061288519738    2.60984098810784
C        10.54434572911799   15.32701305391270    1.34841746265721
C        11.01436826041956   15.98424640544954    0.20953012448967
C        10.59935411326450   17.29155122289038   -0.00380351447277
H        10.93397089423866   17.82225804656187   -0.88077355493363
C         9.75004002740129   17.91849943125673    0.88765858144580
H         9.43437281282502   18.93463898564544    0.70422753236796
C         9.29308841860119   17.24802219107380    2.00557853834579
H         8.61922174527163   17.74571228668910    2.68489743297018
C         9.67999012921522   15.93861157138422    2.25798882646334
C        11.89349120251757   15.28050385995963   -0.79692754474656
H        12.26380217130731   14.34666956506036   -0.36189716876477
C        13.11122034773772   16.12079894195367   -1.18366049304883
H        12.81914456304377   17.00701977561191   -1.73921720140823
H        13.65874125522578   16.43373831245366   -0.29704608109578
H        13.77774711523016   15.53500026982061   -1.81254431249987
C        11.05566868629960   14.92644222331337   -2.02843166444613
H        10.20988093245884   14.30298920950770   -1.74528794573570
H        10.67202866601056   15.82550673012002   -2.50400231289492
H        11.65682848459743   14.38207230788056   -2.75206905428299
C         9.15139423599499   15.20562782542018    3.46792731333345
H         9.63187312991845   14.22427670898974    3.53360212366681
C         9.47331538868884   15.96549240273113    4.75703379559228
H        10.54280130119731   16.15222037803306    4.83539731685967
H         8.95558623790379   16.92012545681587    4.78921814928713
H         9.16068559758752   15.38106849727729    5.61935736526798
C         7.64429748732477   14.97887982372716    3.32606048542435
H         7.11422209842526   15.92608705369770    3.27310386519118
H         7.42428792817396   14.41220122478308    2.42274026692098
H         7.26851764428019   14.42098597071211    4.18039371868820

