91
CSD_code = NETSEN | q = 0 | S = 0 | Stoichiometry = C32H53N3Si2Zn | MND = 3
Zn        2.32879881021359    2.99244396289183    0.43936606554899
Si        5.31329136677348    2.85422502704425    1.11278421312135
Si        4.36079799887427    4.62488604174195   -1.20933395688908
N         1.14526234431038    2.10335136960720   -0.81676916779801
N         1.03922631891617    3.34562143490526    1.86808754484897
N         4.09298492850880    3.55702915731918    0.11714968444553
C         3.75121032182957    0.48756703380580   -5.64305827931120
H         3.28467158220355    1.02000430959212   -6.47974698177652
C         5.23038765136000    0.87703754309931   -5.59671819991934
H         5.71374733859178    0.63237337790186   -6.54029942978086
H         5.74461608601965    0.34589154211273   -4.79972976908014
H         5.33563231228054    1.94461532871310   -5.41839398867426
C         3.59356738841161   -1.01471366740749   -5.88894748628035
H         4.04799793695940   -1.29067508850534   -6.83811418137890
H         2.54035978638189   -1.28615081027703   -5.91745712960992
H         4.07390254927302   -1.58768606308762   -5.09984497653849
C         3.04813483969921    0.90141007824547   -4.37399790098763
C         3.42346447599719    0.38605549648159   -3.13756127408339
H         4.23188934109762   -0.32704505769524   -3.07468099388902
C         2.78407931979123    0.77591302717220   -1.97861938122519
H         3.08831159627938    0.37545815507325   -1.02236567585190
C         1.73385756926570    1.68913206595185   -2.02109388785076
C         1.35899488515096    2.21697179252278   -3.25458852500180
H         0.57177041659230    2.95474583140944   -3.30315112499625
C         2.01228113144729    1.82599927877059   -4.40771312167112
H         1.71182106812015    2.25400038876918   -5.35414187976636
C        -1.06476708099337    1.37853191921066   -1.62211011954238
H        -0.50944762870827    0.69053920148537   -2.25452184845654
H        -1.54300011038373    2.12241603577697   -2.25770159684154
H        -1.84832691828024    0.83177996482534   -1.10277869681645
C        -0.15882768443249    2.05125225824485   -0.61905347770361
C        -0.78506500367100    2.55667639286515    0.51827747320228
H        -1.86116012342699    2.45640613636235    0.52416696184555
C        -0.25038678139746    3.16177144830984    1.65468749566687
C        -1.25845020079500    3.63921530163247    2.67257973204604
H        -0.81239577226623    3.75712487404242    3.65631759610114
H        -2.09891646550034    2.95246981493513    2.73498500809222
H        -1.64189443888100    4.60937272614320    2.35601263854532
C         1.47691170779798    3.87741695626943    3.10884194962069
C         1.82226734988060    2.99863768397970    4.14572197941268
C         2.24574493412255    3.52786113500991    5.35679556405430
H         2.49679080849031    2.86503114622315    6.16999835937865
C         2.35392006355148    4.89297655477342    5.53870098081593
H         2.68779887149582    5.28802731246841    6.48672476382829
C         2.04206846886336    5.74914077266287    4.50097187682320
H         2.14415219389950    6.81379995335090    4.64475932220780
C         1.59204628950903    5.26197899566316    3.28217484260818
C         1.28059693060824    6.22063163279220    2.15770402627805
H         0.83191988478665    5.65956374611760    1.33110913108166
C         0.28900942480127    7.30435301556579    2.58639057180839
H        -0.60288594704525    6.86092449398448    3.02455727456360
H        -0.00772729816290    7.89766248326569    1.72399459272359
H         0.73165925424564    7.97363729651851    3.31959767583601
C         2.58517229350457    6.83998861657167    1.65255665023109
H         3.26093614551716    6.05389935420434    1.32299248685182
H         3.06937857296619    7.41109460303137    2.44166176572652
H         2.38942563256319    7.50410897944034    0.81397035621662
C         1.73122850760055    1.50078122727021    3.96280121382115
H         1.67509738571357    1.29237239735817    2.88694368181889
C         2.96441979755190    0.78727729878172    4.52055084193283
H         2.98331848790962   -0.24394881088960    4.17414397215452
H         2.95275675179578    0.77376788991224    5.60776780819583
H         3.87194425986272    1.28271084560790    4.18645828067122
C         0.46238696024137    0.95218397076420    4.62204637863640
H        -0.42696333074384    1.36232512051290    4.15146057520691
H         0.44376166551520    1.20847947220061    5.67956291309805
H         0.43102404063624   -0.13132180843853    4.52830312447060
C         5.38056709742977    3.74887383738112    2.80428495675512
H         5.74832040003476    4.76308059085883    2.68685596683140
H         6.04067273185742    3.24092292080263    3.50075609802534
H         4.39759532308456    3.81095814082747    3.26154845932815
C         7.05841500828285    2.86641409420388    0.35445934857555
H         7.40888631430939    3.87927528345001    0.20010276072222
H         7.08026084875348    2.35748146550006   -0.60217644834822
H         7.76425938006926    2.36903400214517    1.01153888534397
C         4.82940197295140    1.02182865150097    1.38442968774877
H         3.75413213223064    0.92839206099773    1.53742941799206
H         5.32566688856281    0.59198749542516    2.24820147627739
H         5.09652927392945    0.41790291569161    0.52297747622260
C         5.51763168066565    6.07965059432955   -0.76053429095416
H         6.55508179482194    5.77937519576730   -0.85315208237952
H         5.36782954797053    6.42843011114083    0.25487863036147
H         5.36438688697272    6.92210102879938   -1.42749583466398
C         5.10106221642651    3.76046658129864   -2.74513859683048
H         4.50318434869324    2.90620090664229   -3.04399907472755
H         6.10702683562846    3.40764912884299   -2.54730320083864
H         5.15284761171404    4.44330694424461   -3.58810367550208
C         2.65007273920227    5.31884717228532   -1.71969749372911
H         1.87889991723602    5.02151645298322   -1.00768069585406
H         2.35926699045843    4.94285725642719   -2.69458507291935
H         2.64682079521320    6.40216720474554   -1.77198101932882

