44
CSD_code = NETTEN | q = 0 | S = 0 | Stoichiometry = C17H16CuFN4O5 | MND = 4
Cu       11.68578567551898    7.38892697468011    4.73934053871863
C        14.09798296133896    3.79437991985620   -0.59608529482319
C        14.58453537859203    5.09983541261877   -0.66626186786039
H        15.27766439171407    5.35367715227751   -1.45373996439628
C        14.17573020148303    6.03270946184352    0.25709637015428
H        14.53938002600466    7.04534601456511    0.17003330074849
C        13.27184448935932    5.67983769434317    1.27199447488315
C        12.77738958207136    4.36583346309190    1.31250150356815
H        12.07700168806189    4.11130222059604    2.09259227622118
C        13.18764111115843    3.42872463516505    0.39748143764643
H        12.82682559120161    2.41212440061486    0.42495927270486
C        12.77496598022531    6.62348495908554    2.26204227684216
C        13.61529568195303    9.64008660240347    3.84148728303150
H        14.27440551699065   10.11520269888165    3.10694631332646
C        13.28801465269908   10.39333998171664    4.99695950907520
C        12.42439125111195    9.89461842816812    6.03673995638362
C        12.12482519442955   10.80055290199544    7.09331994933151
H        11.47274870700541   10.45923588892287    7.88136331718251
C        12.67049510095995   12.04936971640429    7.13201851250076
C        13.53081561810642   12.52854852384566    6.13928313300784
H        13.93915140243216   13.52279123496745    6.21279807129484
C        13.81749219988154   11.69560444430101    5.09368383840510
H        14.47314325320285   12.03982891679275    4.30596588465148
C         9.59795972948747    5.36544258998088    4.74510022169284
H         9.64915786500188    5.44924081969401    3.65348976068054
C         8.44314734941966    4.36793891305932    6.61044444582175
H         8.59738051408513    3.31947126043797    6.87102257065733
H         7.43022198411029    4.65838145176268    6.89346363263458
H         9.16229473827636    4.98546554824105    7.14423886677875
C         7.74505437959901    3.85614266202672    4.31516583410586
H         7.98238525554341    4.07975859358397    3.27753227608886
H         6.71117184413253    4.14751855247819    4.51362647460939
H         7.83654989164919    2.77950917027704    4.47628811361409
F        12.37560752051898   12.86643060079233    8.16735178200489
N        14.53010239243617    2.82773513892923   -1.55143312896125
N        13.49077117512291    7.75778237935112    2.50342124470381
H        14.38131685776076    7.93591141943536    2.04632157334709
N        13.15448918959581    8.46147292891263    3.60689621713680
N         8.63850695042628    4.56660214794882    5.19231949791465
O        15.32854786410610    3.18410588335593   -2.40235286243389
O        14.07352525744057    1.69949646258073   -1.46631782864539
O        11.71346848712277    6.43073975960369    2.89473185600479
O        11.93731064624163    8.71682797184545    6.10547497757056
O        10.38170445242122    5.96316409856622    5.48359438207104

