49
CSD_code = NETTOX | q = 0 | S = 0 | Stoichiometry = C19H22N2NiO5 | MND = 5
Ni        7.62970031494536    6.55665019263050    0.30968595964694
N         6.54437922952762    8.00090311013459   -0.36072904957723
O         8.94640084441127    7.80164568978315    0.85510139800426
O        12.05418545101204   11.33297079866414    0.20108189793783
O         6.82973059094856    6.56833918144828    2.58335230165600
C         8.31797935821691    9.65680944748765   -0.49141394025165
C         9.23976222839583    8.92188942974055    0.31615032326227
C        10.50816997440698    9.50207893949888    0.56549252535485
H        11.18153864758788    8.93306522529013    1.18636381063358
C        10.85573723985071   10.71764722473637    0.02537379523423
C         9.93769356639680   11.42731280332442   -0.77976114983462
H        10.24358521500319   12.37734127963476   -1.18596842494132
C         8.70069257690128   10.90441956715747   -1.01687576472853
H         7.99364699665007   11.44889888857692   -1.62742207000770
C         7.00612038298516    9.16523458220164   -0.68497329745762
H         6.30858451858137    9.88528060033601   -1.12482005885036
C         5.11464817918641    7.81644497943812   -0.49825012922855
H         4.66007254652146    8.70813156535679   -0.95361870236701
H         4.69126048755388    7.68993206913203    0.50524868278010
C         4.77037803685080    6.58977523851128   -1.33772321073217
H         5.31962080433853    6.62536548072564   -2.28147869810902
H         3.70158659332895    6.59769399442252   -1.55805728984357
C        13.03089111247785   10.69294548819851    0.98578251315827
H        12.68907838854580   10.55592147347063    2.01670789654434
H        13.89704595327294   11.35302994362047    0.97660370136710
H        13.30926808917487    9.72184674166991    0.56472788338586
H         7.35622021608975    5.78553862974920    2.78592226262010
N         6.53876270504711    5.12493059035816   -0.42145103975702
O         8.89180673727233    5.28145577416407    0.89543078919991
O        12.01526706339569    1.75987125111313    0.27166665474101
C         8.31775106908217    3.47228307771977   -0.53476850097380
C         9.20564347978452    4.17783860333011    0.33453822794362
C        10.45952842333955    3.58446117423861    0.62246723459033
H        11.10537456579791    4.13085723535534    1.29075079695784
C        10.82778764247820    2.38514121605193    0.06053277045412
C         9.94483443866550    1.70570913969812   -0.80738477303075
H        10.26627767764455    0.76831188213312   -1.23046053773590
C         8.72082267763073    2.24084751595849   -1.08245348273698
H         8.04095918211238    1.71933826404464   -1.74177147342463
C         7.01422046545528    3.97117790695326   -0.76376268495990
H         6.33346380129351    3.26357842232714   -1.24822707645305
C         5.11188532804881    5.30385975015194   -0.59217575053447
H         4.68417806666214    4.44636730736480   -1.13192317850075
H         4.65496286323621    5.34251543416506    0.40429040215248
C        12.95676858542736    2.37320290930056    1.11827368804171
H        12.56772712047141    2.48462378588702    2.13533487240117
H        13.81979672940332    1.70916112652317    1.13195388967476
H        13.25816875291595    3.35365726003187    0.73674755393425
H         7.39643508168178    7.32019780817767    2.79388845235891

