36
CSD_code = NETVAL | q = 0 | S = 0 | Stoichiometry = C15H14ClN2O3V | MND = 5
V         1.04210995861551    2.74179403832948    5.10273850465139
Cl        6.49184158968325   -0.64039924467201    2.21909526717860
N         1.86957546984689    3.54087345038918    3.34119658555472
N        -0.55849235010626    3.96005433371782    4.24051019041773
O         2.69900916601681    2.30377341508528    5.50702307709860
O         0.53348798658371    3.31670090670544    6.42945001819269
O         0.37213323860417    1.42348953090367    4.69814056485882
C         3.60667766799490    1.88905706500365    3.36119755827629
C         3.49945555641662    1.63808838449288    4.76358742436517
C         4.36340429432458    0.66315307277995    5.32229491701711
H         4.27696303380492    0.47234029721827    6.38227636994606
C         5.25560311269817   -0.02983513466781    4.54783589665734
H         5.89412826980439   -0.78129354846087    4.98645580770915
C         5.34810012152238    0.23552522966905    3.17654544870924
C         4.54652916085477    1.18269956110809    2.59152774960281
H         4.62516102242112    1.38245494685938    1.53285221641746
C         2.80114871892603    2.89194143630905    2.74857583692404
H         3.03316953239982    3.12603334036411    1.70024337797481
C         1.11492841890198    4.52866559399862    2.62294367001417
H         1.37592816332304    4.55860327558792    1.55304870842507
H         1.31834008026106    5.51707186745315    3.06121613749220
C        -0.36333824009037    4.18049772322378    2.81692013993374
H        -0.58886920982801    3.25330732400768    2.28176525315016
H        -1.00788272878593    4.98515858456063    2.43089659494816
C        -1.82883734523037    3.46104916179182    4.65556776936067
C        -2.38849491624171    2.32823472295891    4.07535572772791
H        -1.84565513662327    1.77842817206552    3.32047623925521
C        -3.61701408097555    1.86604516540142    4.51209033189092
H        -4.04141764370604    0.98019917192860    4.06432009471877
C        -4.29742870357354    2.52324566014341    5.52400719697918
H        -5.25357014663639    2.15457622076866    5.86283404623344
C        -3.73657770059941    3.64420038363143    6.11059964369008
H        -4.25246046795157    4.15409585340969    6.91027070808107
C        -2.51127894426025    4.11663201220578    5.67404378630292
H        -2.06565931834819    4.98091180244992    6.14938303267673
H        -0.38421763004721    4.82932622327810    4.75191410756722

