63
CSD_code = NETYES | q = 1 | S = 0 | Stoichiometry = C32H23N4O3Zn(1+) | MND = 5
Zn        7.02129015824626   13.24474765151085   10.21142653888381
N         4.92373760357402   13.17045828789655   10.27033921718352
N         6.64287403285608   12.15979462618560    8.46047669320015
N         9.11445861911385   13.24891027007499   10.19630603760911
N         7.39585884643725   11.93273960216163   11.80249151303698
O         6.92091609362596   14.98814307254761    9.15644890657497
O         6.90629382624601   14.95268312787099   11.33036498655590
O         0.78430051665976   16.86442592083349    9.24117526026883
H         0.26955310027174   17.25752608164196    9.95691550138705
C         4.85931674195955   17.02496582465280   10.00796532156680
C         3.95599568166912   17.39938892513326   10.99140581044063
H         4.31538915686681   17.72727062614243   11.95527287747819
C         2.59362666187500   17.37044742256534   10.74916999615701
H         1.90101797382819   17.68169032830146   11.51984089643546
C         2.11330883279436   16.94738839033393    9.51672599711087
C         3.01480519215447   16.56313942152071    8.52677816555461
H         2.63138519612782   16.24902391420485    7.56886463713201
C         4.37058538747318   16.60699098000335    8.77419894449493
H         5.06744434859350   16.30460403515643    8.00690643379781
C         6.34431630574721   17.02891109208127   10.26482297611070
H         6.86430497153973   17.56024655905594    9.46746208380328
H         6.57364481157347   17.47191774242733   11.23218682780282
C         6.77300344659457   15.57532016299311   10.25290644942560
C         9.92576517641832   13.91980597245193    9.40782080858401
H         9.48813068580353   14.31590683639722    8.50202150938497
C        11.27472132954757   14.12713194145599    9.71133714221752
H        11.89661293166902   14.68571590384595    9.03041447273539
C        11.78379246719138   13.61386604611686   10.88037819461338
H        12.82031497859373   13.75479428811896   11.14865100893500
C        10.93485658297151   12.89725024167503   11.74187206018424
C        11.37091963713047   12.33356748278250   12.97599228398236
H        12.40511813764959   12.46140101174828   13.25739072101057
C        10.51099698118766   11.65873204909527   13.77656597207031
H        10.84327830362242   11.23435269293475   14.71176568494852
C         9.14259007252488   11.49525127781669   13.41306831822381
C         8.21231291306371   10.81507351794144   14.21720657547620
H         8.52999489280023   10.38758595676923   15.15659310310708
C         6.91038723574991   10.70889160087284   13.78985949295003
H         6.17046900928003   10.19257240826078   14.38010530882088
C         6.54591485976888   11.28846029586378   12.57147003094394
H         5.52958851995671   11.22144249219659   12.21075679787747
C         8.67446004725476   12.04082911935076   12.19721907105484
C         9.58769839616824   12.74694700687370   11.34735962426524
C         7.49260628765921   11.66120084961778    7.58933933782392
H         8.49732875600311   11.48432668427669    7.94662556986013
C         7.14384746309773   11.36101621300884    6.26994142815792
H         7.88325837525166   10.95248132210104    5.59991697669922
C         5.85931999038706   11.60581088563315    5.84692073759398
H         5.55596898145575   11.40060253127041    4.83098199108372
C         4.93000407881967   12.13944520648598    6.75577328272021
C         3.58162667357423   12.43790202140416    6.40340433039761
H         3.26515065946797   12.24030032347348    5.39042022976221
C         2.72155020571929   12.96018920877205    7.31084609492213
H         1.70266631934091   13.19232493446375    7.04047278861212
C         3.13638265276840   13.22187482185838    8.64842309117824
C         2.28276870293267   13.76363590870553    9.62488761349470
H         1.26040158335418   13.99741476863805    9.36877973714070
C         2.77254951241993   13.98707048703696   10.88955512465498
H         2.14845700438023   14.39949018459070   11.66539714130184
C         4.10713896863415   13.68384240291190   11.16614050680300
H         4.52902401338257   13.86770359882034   12.14419300372632
C         4.46513382727393   12.94036799869408    9.02980094110866
C         5.37926527990879   12.39538744035191    8.06997981954611

