106
CSD_code = NETZOC | q = 0 | S = 0 | Stoichiometry = C30H67N8Ta | MND = 6
Ta       11.21193561049822   14.96603886155587   13.18721171532021
N        12.40019480848926   17.08110909986346   12.93166922578970
C        14.00546759462947   17.97845207486097   14.54689850247984
H        13.67657426966952   17.23076696280659   15.26305101936009
H        14.30619788021666   18.87990968494367   15.07728065817533
H        14.86673459038859   17.58759411559024   14.01262559917063
N        13.17314088650840   17.74681173846885   10.75552181536484
C        15.41564307805737   17.58783065788251    9.72194497338446
H        15.18425051677088   16.57051556094793    9.41775528816064
H        16.47346286862723   17.64969668538360    9.96533193033333
H        15.21956353706441   18.25376931836016    8.88536659843477
N        11.86909535244926   15.80426878279951   11.19710202007669
C        13.20927520318632   14.20385000198987    9.94352372797199
H        14.14494993421507   14.64457814234930   10.27965428011357
H        13.36308944278895   13.74134654891585    8.97046744513904
H        12.90802483392056   13.45218413302811   10.66941766517438
C        12.27645681042213   20.01891834706520   10.23314830483341
H        11.76346760738833   20.07594050879638   11.18979754469010
H        11.68504959630284   20.54830948369045    9.48989286780342
H        13.23865175669952   20.51745585908625   10.32385749016795
C        14.58453981897842   17.98074982741331   10.94755973646699
H        14.89697482006939   17.36744543017963   11.79405529674132
H        14.79742055248907   19.03269775239898   11.19064797947285
C        12.45388908861692   18.55730096197610    9.80342614431674
H        11.46625396467699   18.11420842916699    9.66459653248971
H        12.97268449612974   18.53675851495655    8.83624685790516
C        11.69735801685561   18.89121321375945   14.38904067154260
H        12.03777139151190   19.74373507062792   14.97398012621447
H        11.30274045571479   18.12870341262756   15.05422547373036
H        10.89651577618433   19.22070528925093   13.73154141322607
C        12.47989693795370   16.89444274976586   11.64238623661430
C        10.83157115585572   14.68753243001736    9.30194928186777
H        10.48580159258622   13.89098757063139    9.95568818562776
H        11.00557804528769   14.28434205382155    8.30636830197653
H        10.05670871341784   15.44894837943782    9.23522856057486
N         8.16604980372272   16.97168191585738   15.23201424705062
C         6.77833612312092   16.58050087481008   15.19167161228628
H         6.58466208502787   16.10342393479855   14.23121435202348
H         6.14556162724431   17.47396087442060   15.25863887367635
N        10.09920930216307   15.58263799590141   14.94596057528789
C         9.98300692873194   13.62698812696105   16.38978226035119
H         9.02273840972543   13.31411673230324   15.98664339984119
H        10.05771853406843   13.28116504308145   17.41874753165530
H        10.76954265853987   13.17800378043264   15.78855175501647
N         9.10318101031690   16.37912035082390   13.12150447936665
C         9.13208806972993   18.12900486403028   11.45288716738969
H         9.89131300909701   18.68217468551271   11.99836705821965
H         8.52509982450678   18.83016520003910   10.88240761552460
H         9.63648248163281   17.45023395065707   10.76885066090251
C         8.26031973959811   17.31596341517886   12.41336380055467
H         7.77511372214371   18.00617475919799   13.12321510620990
C         8.22685790462858   19.36784352596056   15.83287343912872
H         8.71168278582437   19.61560360344772   14.89224686470060
H         8.57633910842000   20.05683168805787   16.59800030782610
H         7.15369306908900   19.49931311507655   15.71522240884234
C         7.16553768064889   16.62414529464168   11.58601023561989
H         7.60744826682430   16.08166525537191   10.75269253161256
H         6.48413735076251   17.37286234464636   11.18553617202238
H         6.59075709333412   15.92057246282757   12.18287058863518
C         6.38082984262206   15.60335333912130   16.30561569386693
H         6.97739556750738   14.69589632334760   16.24859389944125
H         5.33178623587482   15.33733132788195   16.19930728142413
H         6.52236256290574   16.04885635441699   17.28774201966351
C         8.56215281550731   17.92793729159394   16.23805488658153
H         9.63951907853623   17.85320853388968   16.38831053265975
H         8.06990418308720   17.70556217169106   17.19415775883332
C         9.11572994279512   16.31332724297159   14.42113102226645
C        11.44256991894782   15.58009618848456   16.97327604344019
H        12.25319993762900   15.25520328122251   16.32402761932144
H        11.55274531968475   15.12944102015887   17.95704815032310
H        11.49590985645722   16.66155179333167   17.08330031594294
N        12.64012951757436   14.04498521002334   13.78940933542808
C        14.89793723697464   14.45888706247387   14.55029319667597
H        14.99120633395422   15.13642650114578   13.70679421762687
H        15.85713093046444   13.98447978969656   14.74429993569556
H        14.60266774958916   15.03076139491962   15.42439140907353
C        13.82438097099386   13.40158533614996   14.21911095908249
C        13.58228252911758   12.53219034687056   15.47269634999580
H        13.18414247050473   13.13911315878646   16.27948946250557
H        14.51698501256672   12.08189920811176   15.79907151216702
H        12.87213578200054   11.74068155673214   15.24935499523842
C        14.37757950845924   12.49308521996595   13.09969938650855
H        13.62097946585792   11.77702717536527   12.79521718629389
H        15.25589644851281   11.95550211365645   13.44989932657064
H        14.65045922837699   13.09991551947439   12.24298879811033
N        10.12896029326886   13.31219595931993   12.69641583404095
C         7.68564705237713   13.23452503833723   13.17528508078119
H         7.71696653202099   12.23506931880527   13.60362697459845
H         6.71184021288188   13.37585722876974   12.71009099913370
H         7.80802604504478   13.96053221070758   13.97452554356063
C        10.50422858891557   11.92323173794997   12.88266668092660
H         9.69596483422082   11.36765758481033   13.37884212370006
H        11.37298837213531   11.91931351126491   13.53990202481019
C         8.79997008403964   13.43333034171508   12.13746076649942
H         8.64376430402533   12.71326953242134   11.32056895126726
H         8.70219022479524   14.43796176298682   11.72857536158650
C        10.87172562678398   11.18738250853430   11.58512277678262
H        10.01468705738978   11.08795540825516   10.92307699855563
H        11.23364255695121   10.18911751565114   11.82017675767727
H        11.65342181036946   11.73193184024408   11.06323866880604
C        12.85308587598618   18.28847033159559   13.58605398968140
H        13.19099180712182   19.03202617853790   12.84955663353895
C        12.12132028048367   15.28121401273188    9.87032404174141
H        12.47186382470887   16.07872877745679    9.20091906305543
C        10.11950998639802   15.15382770119083   16.32839676567431
H         9.28217859005090   15.59472558877582   16.88596015438941

