103
CSD_code = NEVBEW | q = 0 | S = 0 | Stoichiometry = C29H65N8Ta | MND = 6
Ta        4.54428999207789    2.65838179485822   11.42107582075712
N         3.64274699505669    1.24819536153938   12.79033452120341
C         3.75632757958284   -0.18546957586011   12.96248135578884
H         2.96181508662072   -0.55363484311823   13.62588816317394
C         3.60986285928597   -0.88209959035429   11.60439159149536
H         2.65230149515730   -0.63847098024629   11.15165801923500
H         3.67866389913462   -1.96135341353276   11.72535060580363
H         4.39988802042729   -0.53462430247720   10.94303438996694
C         5.12133106264030   -0.53922384492434   13.56053205738073
H         5.89633598428991   -0.16067662568966   12.89815836078844
H         5.22351692697634   -1.61781691441326   13.65730802724296
H         5.24971854022725   -0.09005962954116   14.54299780494201
C         2.62439700026797    1.94861506297030   13.28707676752190
N         1.77339046978075    1.39359217553757   14.26565282694373
C         0.36895839143112    1.20620685658414   13.99712908911263
H         0.08706984394217    1.85124006273236   13.16373003766122
H        -0.22123386953152    1.50632905294100   14.87232662489942
C         0.01761729558720   -0.24123563218704   13.63070385237485
H         0.57100177519918   -0.55481809965860   12.74865079183987
H        -1.04660919195319   -0.31809580676579   13.42095552411122
H         0.25620099538779   -0.91882052908018   14.44729445397381
C         2.28351986430320    0.98810590574868   15.55257861456523
H         3.36186729844769    0.84133131515695   15.47011536848814
H         1.83291558837664    0.03219169176940   15.84777251290837
C         2.01571394367576    2.02588519887568   16.64931706953855
H         2.47156947531873    2.97681379123465   16.38561629022888
H         2.43910978589352    1.68514401056354   17.59113412884153
H         0.94769830508601    2.17935062664828   16.78709192475405
N         2.48240167495867    3.15224099580633   12.81327921441610
C         1.60042596592679    4.11103228461897   13.44179577829106
H         1.11932857820691    3.67207665918512   14.33016326194758
C         0.49747459019295    4.58910376330016   12.48802381030016
H         0.92468186422707    5.16072706813778   11.66715845870795
H        -0.20165800398006    5.22764938253804   13.02542457031406
H        -0.05387658889558    3.74972494589060   12.06990379387261
C         2.42581567186532    5.31764093532867   13.89968791102680
H         3.10772093754482    5.02242566776565   14.69322441097137
H         1.77650556845792    6.10851902526147   14.27185751510006
H         3.01604712487441    5.69734994135395   13.06885762614066
N         5.60752770358510    3.94492431110155   13.06428446528091
C         5.49033900440900    3.32614017887755   15.41904084247656
H         4.84795795667324    4.14533740647363   15.73698778484393
H         6.08228917096149    3.00646342312661   16.27423944577754
H         4.86410409303122    2.50260182845891   15.08569244383237
C         6.39684392130938    3.75397415502747   14.26179411627607
H         6.92950192981232    4.67332136695265   14.54305512088811
C         7.44074967305293    2.66337693546040   13.99835318374105
H         6.94058491539146    1.77746075501232   13.61606737849312
H         7.98156655484691    2.42078609227249   14.91124157124101
H         8.15014996865081    3.00410809941583   13.24915628449603
C         5.69025933445734    5.01268415493554   12.30808642441801
N         6.25711183624264    6.23644998222717   12.71217421352972
C         5.84250801034316    6.86960909485194   13.94288179818675
H         6.70383518053348    7.07234388069520   14.59346864329259
H         5.16730343361933    6.19582527636141   14.47071210039001
C         5.10367503472470    8.18528082939028   13.67372812044225
H         5.75285792361381    8.89950454121761   13.17299502881200
H         4.77009513427121    8.62124299035589   14.61230699584205
H         4.23630440711065    8.00653675702281   13.04325693658206
C         7.48460434898139    6.69222945792295   12.10180106792805
H         7.49285598104720    7.78799165516695   12.11000825638713
H         7.49462856292308    6.35763327641235   11.06433510529880
C         8.75452378168617    6.17205871377810   12.78405293895974
H         8.79440032771477    6.47470558167312   13.82815698309296
H         9.62998460498635    6.57259588590631   12.27844914910054
H         8.78740993639153    5.08733670202180   12.73241253562269
N         5.16500416139122    4.87276856648398   11.10193817692289
C         5.73100736808863    5.89903506616222    8.93821139521995
H         6.79896578819131    5.85173313832645    9.13449598604889
H         5.53294363456365    6.75817657738994    8.30051183295334
H         5.44242116498041    4.99141743207337    8.41686632309416
C         3.43757621899633    6.10569198921624    9.89250057896905
H         3.13471386978485    5.21243705940116    9.35288367886957
H         3.24854432898334    6.97909526475361    9.27078640181233
H         2.84146770409694    6.19170167139955   10.79836406435744
C         4.92731000620332    6.01295834251163   10.23852611119290
H         5.21606760235614    6.93661250300562   10.76212108380802
N         3.36706771207274    2.23938908524520    9.81826033160537
C         2.01265546671902    2.72819959398240    9.70733077004504
H         1.82041238159542    3.13814935693801    8.70206339627966
H         1.87854764318750    3.52594054549104   10.43702920414910
C         0.96225799927933    1.64638338472072   10.00230547060233
H         1.04574823500736    0.81488299706562    9.30555925914159
H        -0.04038417874370    2.06279493594376    9.92320468760570
H         1.11309927966891    1.26994220541726   11.01076804842368
C         3.76965878718713    1.50731917138854    8.63016580469741
H         2.89606777374396    1.08579849343931    8.11791998266428
H         4.41507016083187    0.68124958073584    8.93735551792864
C         4.54750774145896    2.38628488405337    7.64443371348361
H         3.93117297786478    3.21384771097379    7.29897776107465
H         4.85884441661970    1.80298866552136    6.78060670183787
H         5.42360465485366    2.77797731809052    8.15489778429565
N         5.97587780992478    1.76944704138510   10.79383035308546
C         7.05064669944708    1.05585010321813   10.23385768787571
H         6.87170691439908    0.91173086387253    9.15460979748871
H         7.12841573165134    0.05210878498292   10.68794449581038
C         8.41302735065284    1.76355708865409   10.39789931054631
H         8.65743258494423    1.80134324918909   11.45888194675300
H         9.18118685592466    1.17523770178590    9.89052204285135
C         8.36372704161166    3.17663071577558    9.83448469313866
H         8.21456320174023    3.15143458693959    8.75725292049849
H         9.28911948216508    3.71017034383033   10.04377162178428
H         7.52601790214406    3.70301686002235   10.28908918120278

