73
CSD_code = NEVBAT | q = 0 | S = 0 | Stoichiometry = C38H24Cl2N2O6Zn | MND = 5
Zn       -0.37009655807696    1.81490815687380    6.05779165275538
Cl       -2.44648242076473   -5.17113586075704    7.40775762118172
Cl        0.05800134925415    6.01354426934239    9.49826466196425
O        -2.32717115031842    1.39079517962920    6.37493632125306
O         2.68941761180961   -1.26985292668317    5.62880233639074
C         1.49190597440919   -0.71695152719210    0.80859317174106
H         1.44345716581383   -0.47810242299491   -0.24341731511549
O         0.32869157689005    0.10271257790734    5.30282840455197
C        -1.23626101509527    4.89538242199817    9.26777894224801
O        -0.81211652270539    1.03209874620297    7.90432287729039
C        -2.33269004919851    5.27615484609344    8.51030255043277
H        -2.38339614180963    6.26887594493057    8.09013649221658
C         2.14242680512769   -1.86827033382415    1.22661568429297
H         2.59930549220965   -2.52180792446627    0.49796513418731
N        -0.65062540842085    3.86824476318338    6.05009664881680
O        -0.02977722812038    1.79219301620511    3.96942964687261
O        -5.53719773646494    2.58518998834095    8.36557996302057
C         2.58831748688548    4.35183051974403    7.67334282812076
H         2.59484567449105    5.40397881514791    7.90753881446642
C         0.48596729983713    5.94901748249550    6.18146500455308
H         1.36947099336368    6.50991397401311    6.43908102680898
C        -0.37556472488792   -3.01682328513533    4.78253343946451
H        -0.44812753533312   -2.75925456415758    3.73647038715929
C        -2.97968508674337    0.12847954158763    8.26707115081936
C         0.67643677700344   -2.52690857136573    5.55119107663382
C        -1.97663984029950    0.90646920410621    7.47451741875525
C         0.37747141205625    0.63296255098640    4.15823078651614
C        -1.71874770051910    5.83431743804341    5.26903246572570
H        -2.58494611034568    6.29376686508229    4.82064767585867
C         0.74697126850693   -2.85814302734976    6.90220897720530
H         1.56204955882536   -2.46119461671784    7.48798316817315
C        -4.15176327239484    0.71120318384901    8.75516316693772
C        -3.70107563497740   -2.01372480634660    9.08730203579869
H        -3.52233068666077   -3.07033239203368    9.21736176206845
N         1.50172984100522    2.48036806612036    6.68839053551448
C         1.54552148015048    3.79001652819543    6.94247228978405
C         0.90855156695444    0.12540027533777    1.73802525658708
H         0.39811838121739    1.02944977290448    1.44368411856538
C         1.62591340500355   -1.35539681324330    3.51146257460636
C        -1.33759360377266   -3.82895828828398    5.35239597558536
H        -2.15756067341095   -4.20744096369998    4.76181098793039
C         1.72230432395381   -1.63116900193687    4.98562318883323
C         0.97448321372908   -0.19758548368855    3.08562817712418
C         3.55937063500624    2.17490977991515    7.82437132461317
H         4.33936140687949    1.50261127250476    8.14293773563031
C        -1.24542292323773   -4.15323265926899    6.69732215753068
C        -0.20687356301540   -3.67154701383340    7.48073224609986
H        -0.15397637369481   -3.92981602546359    8.52736722626888
C         0.42917759043492    4.57260082261741    6.38788878362066
C        -2.75934140219092   -1.23038872124894    8.44193073035321
H        -1.84828648368482   -1.66205682091153    8.05630044533494
C        -3.35018305141018    4.36593818887384    8.30780577406076
H        -4.21543244518889    4.63027859616870    7.71863963303354
C         2.47520241099097    1.69109606212625    7.10435389647230
H         2.38869834243144    0.64579165584969    6.84017637127527
C        -3.28642272937919    3.08825402974808    8.86055812884273
C        -2.19867079724734    2.74544404014004    9.66027670555088
H        -2.15501536686855    1.78093956448809   10.14131163783065
C        -1.16606204012255    3.64348689536222    9.85536603879739
H        -0.31329476817960    3.37270461819472   10.45777477984116
C        -0.60503686394269    6.58438877855638    5.61242744649744
H        -0.58101861551499    7.64957798530014    5.43568576730138
C        -5.10209366389893   -0.09194978498771    9.38201980544014
H        -6.01117153435240    0.36887458708044    9.73933309842328
C        -1.69404815541519    4.46873264887499    5.50905165298113
H        -2.52535235203831    3.82436763442567    5.26404243990903
C        -4.42839164089881    2.16314092615184    8.62025536110134
C         2.21596908639667   -2.18851901103115    2.57306048333125
H         2.72990558520502   -3.08198301632758    2.89600612815995
C        -4.87693563925845   -1.44495703841119    9.55118557391297
H        -5.61836874554631   -2.05713652920299   10.04266745686811
C         3.60580216962817    3.52597742003744    8.12491316420221
H         4.42190236988204    3.93704979590252    8.70071892297167

