94
CSD_code = NEVCUO | q = 1 | S = 0 | Stoichiometry = C39H51NOPPd(1+) | MND = 5
Pd        0.21451975336446    3.10707662657722    1.66214736884491
P        -0.02439800388173    3.46067413766455    3.92211772738448
C        -0.82832257380994    1.32166874810911    1.48587966658695
H        -0.07434109431552    0.54515204041964    1.64222608222949
H        -1.77727477538411    1.11969833314849    1.96960914511308
C        -0.85400806873655    1.91724977923868    0.20351772705622
H        -1.78393377887842    2.31653556179824   -0.19493389548318
C         0.34460398424748    2.06261806182726   -0.47353347266241
H         1.17742261517056    1.43230963262289   -0.13524852372071
C         0.47204992759207    2.53288938091177   -1.84914218193775
C        -0.53827221917368    3.24128591613060   -2.50899708565237
H        -1.45327972104784    3.49853224017441   -1.99416834612512
C        -0.38267374348178    3.62906062285942   -3.82403988535380
H        -1.17363977756164    4.17451929492378   -4.31582542203315
C         0.78068559839817    3.32375018014333   -4.51237618563132
H         0.89919623269011    3.63262403326504   -5.53903550437104
C         1.79002053184460    2.62058299413884   -3.87516504270542
H         2.69704567350640    2.37467366600089   -4.40555761863641
C         1.64017991842219    2.23282183712713   -2.55955833769277
H         2.43231087758448    1.67923011229248   -2.07356121688168
N         1.45687674709574    5.04668036261554    1.85074243159667
C         0.71120100525766    6.06215825191248    1.07693147281390
H        -0.28434649413826    6.18287261300936    1.51792454596188
H         1.23231313665756    7.02667220742614    1.10528952843098
C         0.59765740174508    5.60901303136723   -0.37575338617139
H         0.01488756934147    4.66776928503118   -0.41028283301738
H         0.08796402496224    6.36435364003620   -0.97564132553513
O         1.86846542685794    5.43901737867436   -0.95292617826737
C         2.63967792886248    4.50116393021310   -0.23989897666936
H         3.61623386470026    4.47853053992492   -0.72548645089061
H         2.18502500266555    3.50272114514573   -0.30099137771614
C         2.78734587305802    4.88235157563719    1.23040634052244
H         3.33223843217611    4.09960714824832    1.76785560708650
H         3.36013864194089    5.81385641076023    1.28222116691444
C         1.61637956183286    5.56137044122036    3.20354174625173
C         2.36814863721416    6.70966433234280    3.44445749419171
H         2.86593129239472    7.22763847539585    2.63916007147082
C         2.48832382323781    7.22853470563398    4.71909404689462
H         3.07937204305552    8.11623802920165    4.87999435818068
C         1.83905337639135    6.61927037253283    5.77938320938675
H         1.91809113067783    7.02688503308580    6.77486727449911
C         1.08135485948151    5.48883880895715    5.55154673242502
H         0.56184668019201    5.02895261129366    6.37546542244867
C         0.97114163966481    4.94275319701399    4.27182450812262
C         2.13706187367929    1.86303971752966    3.93353711321215
H         1.82406006937475    1.66071447133600    2.88843380684053
H         2.75525433365425    2.76838216297369    3.93606333605274
C         2.95402579039917    0.68581865416039    4.46564071773092
H         3.82124950895102    0.52466944358181    3.81663861489983
C         3.42766476123367    1.00733195825075    5.88230827967407
H         4.02166156504939    0.17915716691608    6.27064180113147
H         4.06173758661528    1.89672605018490    5.87214725275238
C         2.08727150097610   -0.57218205325148    4.48603170473915
H         2.67279785381426   -1.41704576816683    4.85041773719245
H         1.75139820475472   -0.81337078013467    3.47452587164174
C         0.90680199824269    2.09115851632236    4.82842485816185
C         1.39261299462161    2.41852626048497    6.23994606036501
H         2.03003420421623    3.30429605047003    6.22706709548312
H         0.54818096355964    2.60254318372023    6.90574526414908
C         2.21271237922777    1.23886710768267    6.77825707908904
H         2.54816357274626    1.48209182538509    7.79123904054617
C         1.35694402954812   -0.02499794390431    6.81321863180839
H         0.49815323684664    0.12046194466497    7.47185788743023
H         1.94142845402233   -0.85665203680313    7.20865386263932
C         0.88266709019895   -0.34573925482265    5.39784805685058
H         0.26190113184528   -1.24719052451188    5.41335745538349
C         0.04968957305531    0.82470181427402    4.87160676269556
H        -0.80796056799085    0.97597846016553    5.53006008077318
H        -0.32308798777474    0.59088155521891    3.87350601036559
C        -1.99071019088058    3.74344186847791    6.05234738070013
H        -1.82403905060491    2.71089411641319    6.36446236251505
H        -1.32070026490883    4.38867653246654    6.62051887847927
C        -1.75339944215720    3.89329341914371    4.55206701610990
C        -2.01323692036885    5.33942169305524    4.11611392303250
H        -1.33073161433344    6.02577447701775    4.62210006264338
H        -1.84050609231185    5.42009832175744    3.03351984105343
C        -2.72947909254517    2.99254042360753    3.78729005528721
H        -2.55956057186940    3.12888970970563    2.70954267140040
H        -2.55698546606683    1.94566610768884    4.04744199963605
C        -3.45503548102258    5.72867595087172    4.44724264552350
H        -3.62107174164228    6.76813984779460    4.14632174942778
C        -3.67630617725785    5.59007468634859    5.95290581980979
H        -4.69637424415233    5.88296988951362    6.20452128072628
H        -2.99649525892001    6.25310915411295    6.49258730281759
C        -3.43715922928624    4.14009404817989    6.37101249803964
H        -3.59879073119294    4.03984026252308    7.44903319609508
C        -4.40201602177069    3.22270118289436    5.62343932041939
H        -5.43093645633848    3.48791420897869    5.86944236402166
H        -4.24443052786562    2.18516682974842    5.92618634884892
C        -4.17255166291579    3.37107826443131    4.12104062437349
H        -4.85210833097072    2.70595584304237    3.57835380305162
C        -4.42485094344562    4.81666115699095    3.69976168428699
H        -5.45263393579550    5.09888633684586    3.93091008299668
H        -4.28402763408742    4.92340096063243    2.62158227986831

