87
CSD_code = NEVCEY | q = 1 | S = 0 | Stoichiometry = C36H47NOPPd(1+) | MND = 4
Pd       12.35811765929718    3.50132243072954    4.31283767693487
P        14.31429432176760    3.40732153077455    5.34684797844793
O        10.96524929700304    3.72637502637883    2.50510094794912
N        13.48813757431959    3.68934350235200    2.43901482273339
C        15.45020394712557    3.50690173851985    3.89763873014913
C        14.91739748939252    3.64367067030482    2.60847515049290
C        15.76186648483927    3.74141558227136    1.50962547671718
H        15.34831468544056    3.85198010472534    0.51808796807573
C        17.13455593358497    3.70241772947583    1.67345435947638
H        17.78079659713777    3.77947682422528    0.81345951840660
C        17.67104022932260    3.56685042999476    2.94234142884760
H        18.74093127940816    3.53802277762679    3.07753305164804
C        16.83701983069466    3.47260386296141    4.04183515454549
H        17.27127996172230    3.37572077929995    5.02328031209463
C        12.98829586932784    4.91563675467310    1.81202821816397
H        13.17816149190041    4.90891869485244    0.72868712614901
H        13.49906746100951    5.78021487532829    2.24557305359024
C        11.46472607139825    4.99039209648142    2.08675589097980
H        11.23294079220148    5.68929114261268    2.90123024625720
H        10.92957075054434    5.31075991451165    1.18121244911701
C        11.40382008525600    2.70706027165453    1.62642787538508
H        11.09686253920095    2.96035309928720    0.60206694722642
H        10.88582271692060    1.79385391613464    1.93263190578288
C        12.94327666847523    2.53525863300634    1.71177483870102
H        13.20458128020934    1.62098712620546    2.26033733719388
H        13.36894979279201    2.46420599039971    0.69984871699910
C        10.98907051470670    3.32623291855107    5.73228480724249
C        10.38557902601626    4.46781475824134    6.23998967064457
H        10.83328157642348    5.44975147243498    6.09768728155235
C         9.18970294698682    4.36821517827588    6.93769394921237
H         8.72596625528472    5.25921283297100    7.33416199811906
C         8.59267772221430    3.13327279860976    7.11854568707352
H         7.66539524731127    3.05726939902384    7.66510832304583
C         9.17704628065435    1.99715395137010    6.58686898491838
H         8.70341433431565    1.03437457185509    6.70898722940506
C        10.37296699673447    2.09206224633134    5.88932506053768
H        10.81271459136429    1.18886000190384    5.46830068713364
C        14.64848564842159    4.98885015635464    6.30523535996214
C        14.11131897760905    6.07511601133588    5.35937814011600
H        14.71947942760257    6.09620197478852    4.44737810806501
H        13.06242102023509    5.84406628659525    5.08472102574442
C        14.18068679272366    7.43877013247786    6.04614283991149
H        13.80061757834586    8.20712703989259    5.36422974967957
C        13.33298678299322    7.41351245818514    7.31608937039146
H        12.29042446017762    7.20306959557517    7.06938657231483
H        13.36879189128505    8.38864959903495    7.80337592066671
C        13.87120029584833    6.34187382150087    8.26059590637869
H        13.26330710728451    6.31684372423472    9.16986375801617
C        13.81512551768110    4.96896306588442    7.58794306501839
H        12.78274851591801    4.68999708576972    7.35733104996782
H        14.22142013225224    4.23143193253913    8.28093465674952
C        16.10230407921091    5.30260211059999    6.64835520129817
H        16.70859230782444    5.35216331915187    5.74237235368314
H        16.51445003062946    4.53405181578837    7.30585601631318
C        16.16423898998133    6.66812562770328    7.34610395881441
H        17.20722321756439    6.88445079683736    7.59778166651990
C        15.63512117347488    7.74632802539350    6.40173206373847
H        15.69858554894704    8.72266291307526    6.88350540263305
H        16.24316311264917    7.78239377463155    5.49471173896876
C        15.32317751389475    6.65272351903609    8.62067889515614
H        15.38662983168915    7.62302304047758    9.11480629845459
H        15.70580997043223    5.90110746090566    9.31408253821824
C        14.62819048526818    1.71782524802023    6.10725974873326
C        14.14582836761101    0.76342360412546    5.00358886513880
H        13.10895768701705    1.02716865002137    4.71657567610195
H        14.79390728331264    0.86268876755763    4.12474328394518
C        14.19483094086281   -0.67825088087903    5.50918138647686
H        13.85653213343604   -1.35165486366023    4.71436670019288
C        13.28634587412980   -0.82309682035087    6.72796091744296
H        12.25509050925540   -0.58465816352030    6.46095798496189
H        13.30851177192685   -1.85360305419935    7.08461148405183
C        13.76774556036057    0.11788883328275    7.82905938779667
H        13.11528981210593    0.02330503279968    8.70211460311258
C        13.72975324963766    1.56586755886937    7.33711887194557
H        14.08588809446696    2.21052771582478    8.14079072130209
H        12.70602563412565    1.86213118904543    7.08900633013205
C        16.06566789318435    1.36621718076685    6.48004953867523
H        16.71634372107734    1.43257799565338    5.60713791670495
H        16.43799508761652    2.04436002765975    7.25104210680737
C        16.10523994827909   -0.07857661720214    6.99639099672748
H        17.13667434394845   -0.32317496866521    7.26910875264092
C        15.63309102239799   -1.02495682690948    5.89359149106061
H        16.28505935104692   -0.94003997422782    5.02103199246692
H        15.68214026252606   -2.05583650373995    6.24609303839008
C        15.20292025818956   -0.23220355609551    8.21850076669458
H        15.54346174657888    0.42422963678157    9.02182017495394
H        15.25160273466037   -1.25834013308296    8.58504474581557

