70
CSD_code = NEVDOI | q = 0 | S = 0 | Stoichiometry = C30H33N6Rh | MND = 6
Rh        2.45975031060319    1.76915829802021    7.51447021352903
N         1.09295062067178    1.45369314500555    9.26115369983814
N         3.84201711355697    0.65355148629578    8.87897639117607
N         1.79179243178924   -0.33018020589965    7.09675358639154
N         4.51912757415155    8.16173507066606   10.46606544745332
N         7.59254252258527    1.35117623512653    2.28896480675946
N        -3.10048183107204    4.28950704312560    3.44039273598713
C         2.02417053744678    1.43981702052358   10.39877056568005
H         2.41917429276264    2.45489056536835   10.50099046494409
H         1.50140974064827    1.17631377971121   11.33286306754453
C         3.20308473210362    0.47713312311559   10.19670325771172
H         2.86816577389648   -0.55731894242519   10.31101274236542
H         3.92697796284792    0.65951093762596   10.99928906433583
C         4.02244671418757   -0.62629312504181    8.17811190876822
H         4.59580896314463   -0.41563532600335    7.27052135922499
H         4.59899627096997   -1.33522143563909    8.79475231924488
C         2.69356662564352   -1.28085677985381    7.77376166731260
H         2.19770637660199   -1.70078526648743    8.65304300231487
H         2.92275443336476   -2.12562585068261    7.11396800206650
C         0.43678326237730   -0.35247796068961    7.66652990464425
H        -0.18381784095784    0.29602945720724    7.04104650789608
H         0.01342112857957   -1.36996508610574    7.63707521438099
C         0.38435801513684    0.16882636646805    9.10991688422986
H         0.80912007519526   -0.57154633946849    9.79314030362229
H        -0.66992759627443    0.27951897896853    9.38860158882397
C         0.13106720206440    2.54384684043030    9.43868307685080
H        -0.55126571789326    2.56830048047369    8.59072841588610
H         0.66122755181402    3.49494496884098    9.46693848729059
H        -0.44258775640179    2.42016544450448   10.36695718357168
C         5.14367052850786    1.30765220001149    9.03205694047950
H         5.01221865112710    2.26353796847273    9.53624033533717
H         5.57024661260813    1.50483331811623    8.04926490639906
H         5.83718607683366    0.68164827090329    9.60924850432026
C         1.71985695234416   -0.63301958656431    5.66588004678011
H         2.72095208444716   -0.60278603914413    5.23949122455031
H         1.12110398549933    0.12548185643125    5.16316718181724
H         1.27618333286214   -1.62224871099250    5.49046322356650
C         3.01047566598358    3.53546575910867    8.08635392730073
C         3.33869444941582    4.58268453956155    8.60188507395644
C         3.73258577440621    5.79343665150218    9.21203137348154
C         2.79379142710807    6.65716435221664    9.78660133331394
H         1.74028849271035    6.42053636693568    9.74917421017816
C         3.24283976541695    7.81496485830100   10.39173540074761
H         2.54662774939853    8.50836288382936   10.84796503480443
C         5.40783131407808    7.34728148581943    9.91621494014714
H         6.43973013590384    7.66804588653717    9.99270743460191
C         5.07998430954877    6.16306928242517    9.28516613075837
H         5.84030118754454    5.53159679056490    8.84985335389251
C         3.73775672531033    1.85332404025650    6.06124588346074
C         4.59111678688697    1.75311390141246    5.20579574739642
C         5.59044000166355    1.63115629892981    4.21572285129874
C         6.77301010805424    2.37539760940019    4.28493225460145
H         6.92507387274603    3.07733251149320    5.09117443858778
C         7.72632616098522    2.19518016573226    3.30164938566230
H         8.65467017203202    2.75301559778181    3.31994402988866
C         6.47018374001479    0.65134255631460    2.21959973826470
H         6.39563299754164   -0.02318354273861    1.37502055392003
C         5.44628751231175    0.74559821065047    3.14215737211027
H         4.54740805713262    0.15485260646369    3.03836189200523
C         1.12264915703713    2.57407472241701    6.36684346040990
C         0.18960201075194    2.96056936370084    5.69593142567211
C        -0.90528974232018    3.41404438529235    4.92832105722406
C        -1.34926041835070    2.70781803698890    3.80521099778000
H        -0.84194563390163    1.80727668874720    3.49020920547616
C        -2.43964064995628    3.19085365498770    3.10791811480563
H        -2.81265936761686    2.67212200242082    2.23297283864378
C        -2.67637534215988    4.96194039648098    4.50047529365395
H        -3.23878789736462    5.85719471505125    4.73633768739902
C        -1.59946049017670    4.57802738594684    5.27562858614946
H        -1.28804574602144    5.15982763500289    6.13026473931299

