45
CSD_code = NEVFAW | q = 0 | S = 0 | Stoichiometry = C22H15CrN3O3S | MND = 9
Cr       -3.66096481052360    2.35608219090597    6.26074940535816
S        -1.19147767584542    1.73226720589393    6.47654579127932
N        -0.89770103942264    1.28953603599591    8.01203845309907
N         0.41871541869549    3.21722168366206    8.43420613455497
N        -0.51612050563852    3.20287778575301    6.25220718687862
O        -2.63244882079909    3.79752202805033    8.65646348748382
O        -5.55887286107389    2.18187352446573    8.54679065544044
O        -3.67159335037209   -0.33214211171454    7.55484475500713
C        -2.77571252433109    2.71223540837431    4.20756907675288
H        -1.75533290293937    2.58401514636316    3.87670194177853
C        -3.34034707519420    3.91442873473825    4.67572103447362
H        -2.82285292160168    4.85888911453699    4.75788139124241
C        -4.72735022252509    3.71660021034983    4.82450366103168
H        -5.45842805062074    4.48166471192030    5.04269141342653
C        -5.01710027215317    2.37872646574121    4.46781009356653
H        -6.00508645105972    1.95223529859165    4.37427331356479
C        -3.80757040618676    1.75400795962034    4.10790755695839
H        -3.71261351855753    0.77259078858701    3.66523571251930
C         0.21165347831313    3.72213175666649    7.22052816143928
C        -0.20213376769719    2.09020662877992    8.78925000355836
C         0.84531335993146    5.01600228270787    6.93735321030502
C         0.80799747590712    5.55817495472071    5.65423127478379
H         0.31206565606668    5.00752176684534    4.86981512986378
C         1.40552925201782    6.77715620543833    5.39974239042906
H         1.37682545600306    7.19465663931850    4.40370121848150
C         2.04426397885775    7.46517951603558    6.42001608487796
H         2.51114350391688    8.41816547099249    6.21793148743401
C         2.08274601233260    6.93095345095845    7.69833897662527
H         2.57903470018743    7.46891332563800    8.49273957918910
C         1.48603838514631    5.71258579186261    7.95934584996189
H         1.49845650056676    5.28132049458137    8.94729374792099
C        -0.08544758453812    1.69509033048314   10.19586465333774
C        -0.91937882199981    0.70791666526552   10.71750725876247
H        -1.64102690730003    0.23763787361110   10.06711637376413
C        -0.81818385483888    0.35360811549976   12.04873862148641
H        -1.46788782958591   -0.40812972166141   12.45366702572201
C         0.11248821372045    0.97631939659562   12.86643492757066
H         0.18830853116516    0.69729988687140   13.90737596498036
C         0.94364011823352    1.95847804473047   12.35072178694829
H         1.66864565407901    2.44187570605167   12.98919950765609
C         0.84576474762374    2.32087698233938   11.02129224235826
H         1.48394879520135    3.08066557109480   10.59924452315837
C        -3.01061312994938    3.27841281973124    7.70232917133512
C        -4.86576192136754    2.27086042817114    7.62649985921789
C        -3.64317201466303    0.68268743808509    7.01457990296361

