44
CSD_code = NEVJON | q = 0 | S = 0 | Stoichiometry = C8H24Cl2N7P2V | MND = 4
V         2.23510226247987    1.53469064287255    2.06371781629188
Cl        0.34018318319507    2.32682597030619    2.06795774951386
Cl        3.56576232198349    2.85607648682937    1.22638605479282
N         2.64154391146873    1.11992449684078    3.62451422214939
P         3.48900513449911   -0.17156854280962    4.04275894528983
N         3.05532417822874   -1.53320414677753    3.27176393149288
P         2.20942405243494   -1.35862284952781    1.89696468410286
N         2.32353104352041    0.09351329592402    1.23418646441709
N         5.13148990375408    0.07286083600073    3.75991809519140
C         5.58082006258989   -0.15695000914387    2.40388849296052
C         5.61161570049407    1.33002177114974    4.30875537840641
N         3.46924924185458   -0.35594707726670    5.69931579354239
C         2.29658654477325    0.06558982506646    6.43493119603653
C         4.11038805084095   -1.55710819046821    6.19037249144936
N         0.60328810851124   -1.73764164295951    2.23495660559154
C        -0.27572852205297   -1.50532829884102    1.10112780938761
C         0.07591214012334   -1.20640605503842    3.47325319310584
N         2.58969253208083   -2.52997129816728    0.77373877726534
C         3.56830013673916   -2.22573502351801   -0.24779205053946
C         2.62860294299985   -3.88312838623442    1.28596819249984
H         6.66917672460842   -0.24416159439466    2.40125862270056
H         5.28414310060604    0.65505824951915    1.72087030561560
H         5.14368843231345   -1.09075285255777    2.04837444493847
H         6.69671704262086    1.28063973029972    4.41851346212782
H         5.15434907201468    1.47595741134642    5.28722712354617
H         5.35430673110756    2.18022026668240    3.66339835704927
H         2.60134505322522    0.44852426402713    7.41269812511555
H         1.58332295427855   -0.75205960537365    6.59144623511634
H         1.80773098778313    0.86400838054881    5.87271953309372
H         4.54655033081560   -1.36256593687590    7.17315392923613
H         4.89861280939117   -1.82700719386723    5.48947650808715
H         3.40969876290917   -2.39422562444665    6.27430175315300
H        -1.19487808728088   -2.07820849814825    1.23855369692267
H         0.23075133859159   -1.84353560106804    0.19731311978875
H        -0.52794162993736   -0.44220429745827    0.99315445814190
H        -0.85025867386654   -1.73038109787061    3.71753236007710
H        -0.12855835488183   -0.12552415027862    3.41208558702471
H         0.80732649609291   -1.38024977075915    4.26332742984492
H         3.29895978788463   -2.74361610323197   -1.17235923521136
H         4.58132792190661   -2.53270928476098    0.03724637387797
H         3.55711678020323   -1.14794046353823   -0.42324924694969
H         2.32385179158501   -4.57964401537103    0.50118370950111
H         1.93110760274676   -3.94646320058682    2.11940818312685
H         3.62686009476161   -4.16265081607243    1.63798132112767

