61
CSD_code = NEVKUW | q = 0 | S = 0 | Stoichiometry = C18H38O2P2Pt | MND = 4
Pt       -3.51702399089248    5.04945082853601   13.21166632564403
P        -1.34384118352653    5.68037489827304   12.69010752191994
P        -2.57818743798901    3.68216456627805   14.86485622339184
O        -6.14170126639259    3.77799376539316   12.89262114563850
O        -6.56578876714521    3.37797233445461   15.05885725052394
C        -5.07620083276333    5.78153857516028   12.06988792687805
H        -5.21814789304181    6.85940152834991   12.07965745685347
H        -5.19522393694135    5.32495296463055   11.08931706276873
C        -5.56756271607410    5.04316238034703   13.18842345082856
H        -6.08906622616251    5.54414649727060   14.00804210836355
C        -6.60156245732936    3.04814907994537   13.89642954487205
C        -7.18686340417739    1.74663293857879   13.39648312808738
H        -7.20960176722895    1.02129559404826   14.20433515754684
H        -6.60376478797264    1.37374028960414   12.55962364133755
H        -8.20479273113373    1.92729061401257   13.05640762855205
C        -0.22863743734001    5.00000065391414   14.02258707038503
H         0.79566414501018    4.90378624422534   13.65069581527176
H        -0.22887108169373    5.73149334131740   14.83346544514599
C        -0.73544802032966    3.65997829993647   14.55555206281046
H        -0.20008039222352    3.38573845446723   15.46887417002220
H        -0.55329519215340    2.88486142872996   13.80817525088523
C        -1.20020129078630    7.51663244676888   12.95552433158590
H        -1.69751374007582    7.95422980236024   12.08138603881450
C        -2.03998901595552    7.86439790616578   14.18459217224611
H        -2.26863516395747    8.92812643188059   14.21170561755860
H        -1.51718639916788    7.60759406970972   15.10354774122368
H        -2.98505161456016    7.30222207305233   14.15221479497156
C         0.21406750778438    8.07676594580123   13.05390326831773
H         0.17062124134482    9.15360415053241   13.21244352303996
H         0.77673261209552    7.89424522997693   12.14136415491247
H         0.75613263249062    7.63712005618163   13.88811261176540
C        -0.33649117640325    5.37742843107241   11.14845595005616
H         0.69348755700890    5.71754766221475   11.30560624146875
C        -0.34302631362105    3.87700123174760   10.87275556436234
H         0.14955931070067    3.65638690573745    9.92675770586092
H        -1.37188060601113    3.52145986559173   10.81847639125854
H         0.17429737711588    3.33098954876109   11.65928781635592
C        -0.96904190914950    6.13048973740816    9.98373999079544
H        -0.52210936609980    5.82047664432670    9.04032855680661
H        -0.83514941118102    7.20487585564879   10.08527952991262
H        -2.03708951217653    5.91700939725894    9.94689503614216
C        -3.06268912008720    1.92806215334210   14.48218348305474
H        -4.09778541695503    1.85700055257090   14.83697484939411
C        -3.07491980435123    1.77485038620103   12.96087108214052
H        -3.64785558837012    0.89851184277972   12.66222152770127
H        -2.06439520819288    1.66602650545644   12.57035125639219
H        -3.53013369958513    2.66445181398768   12.50160033529764
C        -2.23209660825518    0.84037367677903   15.15387754166288
H        -2.62471791883696   -0.13960665704062   14.88480138538017
H        -2.26498635077987    0.93013801726960   16.23696620186262
H        -1.19261792566417    0.88359874589176   14.83534271455289
C        -2.65831056682120    3.77084407816366   16.72525419183427
H        -1.89237843445844    3.11195010870935   17.15297467584842
C        -2.36600199954903    5.21378298402784   17.12718737801158
H        -2.45905064390248    5.34079534263122   18.20477147543229
H        -3.07586573173369    5.87972946996965   16.63751703802438
H        -1.35758680194703    5.50435984813687   16.83676069183525
C        -4.04158641259682    3.35028782326131   17.20917821295578
H        -4.18650278341084    3.65071480245839   18.24572246659547
H        -4.17188369308276    2.27219604606396   17.15078389409759
H        -4.81907063328095    3.81640378931723   16.60531717253652

