64
CSD_code = NEVLEH | q = 0 | S = 0 | Stoichiometry = C19H40O2P2Pt | MND = 4
Pt        6.29906577126431    3.13266751575064   10.76288071887329
P         6.56391609579367    4.08890226381532    8.74638890425739
P         4.08287489647247    3.99411682391798   10.72651768031979
O         5.89026164619068    2.26032402222786   12.65395609355172
O         4.95273457477735    0.87368455902868   11.21766102322876
C         5.22619433743710    1.21837308530932   12.36975719524516
C         4.75527941259283    0.38853459983689   13.55877378042993
H         4.09191366610990   -0.40062546045455   13.21723098461757
H         4.24396340462483    1.02851572613132   14.27460851958267
H         5.62122080058429   -0.04942965180910   14.05065667018053
C         8.28500605831518    2.60802248636692   11.10409256058286
H         9.03151798957638    3.14789978652938   10.51186172552930
H         8.40894232886127    2.86592202460993   12.16564253816913
C         8.43002355417772    1.15711196621151   10.91524927945520
H         7.84602726537976    0.52694085316501   11.57735352864853
C         9.22052063602306    0.57930005313639   10.01510490120467
H         9.85332945782022    1.15905745565384    9.36056239661724
H         9.28001500398045   -0.49041557387705    9.90759870904998
C         5.18397598743236    5.30468961551719    8.44835387234236
H         5.55070357552516    6.26386782626771    8.82184331545996
H         5.03034470203360    5.40748907616557    7.36942502500355
C         3.86590131492663    4.95717119235131    9.14186317746943
H         3.26278260549363    4.32739643628116    8.48449957566948
H         3.29559176288645    5.86868652726822    9.34152629129214
C         6.38138043043065    2.87851068579709    7.34981447264799
H         6.13319669175155    3.41653399405941    6.42527002420496
C         5.24293998682563    1.93574704782321    7.72903972518378
H         5.17857094764861    1.10873879552878    7.02417873971954
H         4.28777277062149    2.45395525613505    7.73189548765777
H         5.42242133328719    1.52513031594325    8.72621754880496
C         7.66791699983874    2.08189305067857    7.16789268374502
H         7.51518371714090    1.29322818691597    6.43282298674495
H         7.94192785834470    1.61872662231277    8.11417769937825
H         8.48955657799575    2.70654730381793    6.82437127674721
C         8.07431237824744    5.09274503615841    8.32790045896208
H         8.88911799992804    4.35940546227482    8.32387255924971
C         8.34712382522672    6.08525138966808    9.45512223315751
H         9.35230059366793    6.49290974492382    9.36765174209968
H         8.25608288537784    5.58510729578757   10.41888127435696
H         7.64636455930008    6.91700274411071    9.42702260114631
C         8.01934609688700    5.78413898832755    6.96983102546544
H         8.97117380824282    6.27428701244550    6.77053479428680
H         7.24196688811051    6.54435606718886    6.94844974801052
H         7.83234512262675    5.07293434467760    6.16905512139618
C         2.41154711441813    3.18504653029323   10.92826982255650
H         2.44791258459561    2.75783085821812   11.93834252834525
C         2.26671440437064    2.02007882804255    9.95315477903231
H         1.37258629760376    1.44560720840373   10.19015274582861
H         3.12944873020328    1.36198377710839   10.03357766685602
H         2.17585017444552    2.36819089466707    8.92577246485203
C         1.22383835131812    4.13853885067239   10.82923950325516
H         0.30318248248884    3.58733259885603   11.01703320033200
H         1.15407766529771    4.57415034528219    9.83484876307741
H         1.28620362484927    4.94263079084750   11.55831845032646
C         4.04002605998160    5.34414512947873   12.01639253642243
H         3.24002386305812    6.05708210102294   11.77913957731255
C         5.38645278142074    6.06235931887943   11.98811837263800
H         5.44929177699098    6.79282429238144   12.79354592159375
H         5.53947261185344    6.58166621088956   11.04508121823134
H         6.18882168733619    5.32874249570764   12.12279973690639
C         3.81494108010481    4.74282048373134   13.40107020033842
H         3.94609420987070    5.50611900166074   14.16732209542624
H         4.54363186743327    3.95253602757188   13.57864269937283
H         2.81397431278643    4.32966170229122   13.50656704752807

