42
CSD_code = NEVMOS | q = 0 | S = 0 | Stoichiometry = C18H15MoN3O5 | MND = 6
Mo       -0.25318848886899    1.10264878777758   11.39647475726944
O         0.53830354956641   -0.33862251524829   11.52424758929597
O        -1.81805105057080    1.04796798488657   11.90040237141238
O        -0.55182237857693    1.12602750976026    9.53339336005778
O         0.44736954688122    1.94982275267367   12.99708884275929
O        -0.13068236387525   -0.72318011215614    5.17092871553820
N         1.65633991555321    1.96861942324352   10.71442144690174
N         3.62187677530631    2.91647538021359   11.65906447698166
N        -0.76970586426521    3.42294593453144   11.05005135452432
C         1.58813097694906    1.12803449792113    8.47309012788981
C         0.19711459560083    0.81777697054739    8.50722947887080
C        -0.39281402688645    0.19771723320407    7.39622529187200
H        -1.44512865638266   -0.03117808834399    7.47659038612666
C         0.35342888407685   -0.11705881944711    6.27280049377109
C         1.72412333703580    0.21081041644584    6.23366612477058
H         2.28148276010884   -0.03862680943051    5.34575895306623
C         2.31551760628656    0.81267453002613    7.30761142355678
H         3.36888458435466    1.04933316598942    7.27987334428152
C         2.24755496546560    1.70190993348129    9.59043026994057
H         3.31699922904114    1.90586111932316    9.50792376271924
C         2.38730916686045    2.45136909104978   11.78523752471939
C         1.68268868702715    2.38753161491829   13.01479579948169
C         2.36437757590346    2.81492418734451   14.15988528733205
H         1.87612257364012    2.76792011781269   15.12234094135424
C         3.65674594829034    3.29159841414067   14.01638536593026
H         4.21070634724091    3.63526380645749   14.87625901538520
C         4.23714944263356    3.32880984715774   12.75451842170317
H         5.24066821190708    3.70239553744517   12.60676457375505
C        -1.48355516415265   -1.12365586774220    5.15152569290636
H        -1.70211273796110   -1.82580572298861    5.96046431807869
H        -1.62969907730377   -1.61693674114407    4.19210838084825
H        -2.15477325143878   -0.26308448739384    5.22438063765498
C        -1.53545176966772    3.93092482432389   12.01111991145162
H        -1.57347283652379    3.36005791884720   12.93068555825460
C        -2.25660492134057    5.10417799956720   11.85360446032935
H        -2.86819981523477    5.47427027064700   12.66100356508519
C        -2.18301771276111    5.77929122199876   10.64567371702561
H        -2.73853739597448    6.69139443214817   10.48531919679517
C        -1.37784256444394    5.25499147890293    9.64683321698488
H        -1.28395400983492    5.74553697641602    8.69069448826770
C        -0.69083981623659    4.07762891046962    9.89582463555592
H        -0.04924077743008    3.64493687422216    9.13580271949343

