45
CSD_code = NEVMIM | q = 0 | S = 0 | Stoichiometry = C19H17MoN3O5 | MND = 6
Mo        4.63027641563970    3.51619021942193    2.97723309895473
O         3.41910041645927    3.57357786331529    1.85892328741185
O         4.35535113814916    2.43926836236819    4.19010468802791
O         5.90186072387960    2.53073552083418    1.98539699510880
O         4.13802025391063    5.10150416809031    3.99286066726095
O         7.26023067561703    0.29649687344016   -1.98942094962677
N         5.58838962094202    5.15395885916481    1.85296993184793
N         5.55257022824941    7.52976381958473    1.77745931821728
N         6.60526839963317    3.98541527411713    4.21945564410795
C         6.42654336147330    3.82374129194521    0.04717404594602
C         6.27002145975439    2.58336256188419    0.73262106895894
C         6.55407403772154    1.38821576957058    0.05533538099852
H         6.40229849812565    0.47415038253428    0.61005077597492
C         6.98288801129711    1.39664790525904   -1.26134041753874
C         7.16384921243383    2.62622202229049   -1.92687337894177
H         7.50671040369542    2.60612550115108   -2.94830777098373
C         6.88840150479449    3.79945781134205   -1.28424484682517
H         7.01150625875314    4.73908340580609   -1.80232569133202
C         6.08517207938506    5.05769070269899    0.65829671033337
H         6.21974732181208    5.97331853373204    0.07882323304723
C         5.19670179148920    6.38606760016166    2.34459684160179
C         4.37786203334875    6.29093727065544    3.49959843658712
C         3.89634119708093    7.49095071707897    4.03567294721789
H         3.25275210512319    7.46912146908454    4.90299488570776
C         4.26886229541532    8.67913078844033    3.42955785108545
H         3.92151816495209    9.62345415589537    3.81954930419843
C         5.09798643810240    8.64920350861563    2.31519639025702
H         5.41467858470324    9.55851024126843    1.82391401246200
C         7.05271048347590   -0.97381944961761   -1.41160139062724
H         7.70529476210234   -1.13042336289291   -0.54788657557593
H         7.30194396173984   -1.69382185930570   -2.18926564185329
H         6.01044417979316   -1.10778052506660   -1.10985368593540
C         7.85850152644745    3.91224315448778    3.78162105164414
H         7.99550724205258    3.87817316167331    2.70619651004254
C         8.95466363129069    3.87925257139379    4.62537186287925
H         9.94988531058806    3.81446907707346    4.21247756542555
C         8.76167399376078    3.92605264150457    6.00226127878131
C         7.44550972208253    4.00995664580634    6.44979746479757
H         7.23083990096862    4.04821800116492    7.50665082571964
C         6.40906748058430    4.03384239031558    5.53524827481611
H         5.37477445911378    4.08037501850148    5.85290451041907
C         9.90566895402281    3.90529329246755    6.96000532727485
H        10.81685592590154    3.56521966759021    6.47556046526982
H         9.68504310914364    3.25740960734619    7.80520484748771
H        10.07713272498154    4.90923736780409    7.34833484936722

