50
CSD_code = NEVRUB | q = 0 | S = 0 | Stoichiometry = C15H30CrN2OSi | MND = 8
Cr        3.64032073091187    2.80713854431316    1.28527155154009
Si        6.23195296407894    2.18119576357182    3.55596853101907
O         4.03243587796635    0.05454101589585    1.58846357390550
N         3.79717829619252    1.21246426367675    1.51819217494926
N         1.98085296485146    3.01483538541121    2.00188997647953
C         3.79684440626047    3.00815293716955   -0.98503306714880
C         3.31803527235270    4.27935082574006   -0.58739458205549
C         4.29602691861978    4.88383572034733    0.20352101479340
C         5.40264647385866    4.00455872101578    0.28071404993395
C         5.10895033985620    2.86408342203518   -0.48020016503748
C         4.73112092513607    3.23357643672447    3.06232255360333
C         5.64890318183672    0.67192027495735    4.57350485394778
C         7.26540339284598    1.53263285191460    2.08414522324622
C         7.39022280848193    3.24478138505833    4.65385475497902
C         1.03913385241030    2.01087048287235    2.46673850041408
C         1.57028781880249    1.26648630757811    3.69736046448431
C         0.70256042950465    1.02535328848142    1.34142331663741
C         1.48152190725667    4.37113547657405    2.11835466321789
C         1.24659730161813    4.78679787517834    3.57928471999947
C         0.21747641166986    4.62478716701861    1.27936241053029
H         3.33148046251859    2.36331284626343   -1.71830242501213
H         2.39542914748594    4.73345875812039   -0.91839788429919
H         4.26968527655649    5.89066213114781    0.59516565864085
H         6.36107603550942    4.24771197907228    0.71283217087602
H         5.79719908169354    2.07150389696166   -0.73448713691672
H         5.02478445550039    4.28443356793259    2.99774025941944
H         4.02346397619956    3.16446792885400    3.89057274968583
H         5.00176106164476    0.96441337334015    5.39471789874827
H         5.09618902784979   -0.01998113596303    3.94704325535504
H         6.49089134939361    0.13206896843395    4.99584497419514
H         8.08438429339162    0.91267399296040    2.43707739399880
H         6.65191087060967    0.92160847376046    1.43033069050603
H         7.69826843435613    2.33186990235889    1.49097150523541
H         8.24208302150956    2.66580745331109    4.99477476892195
H         7.77505047861566    4.10492594126888    4.11495644337105
H         6.87317355549793    3.61445416151806    5.53339376304229
H         0.09939818484707    2.49464782694253    2.76153945151439
H         0.83797937585172    0.53184132659777    4.02280095841915
H         2.50054933578007    0.76014961946249    3.46434276536553
H         1.75149862907120    1.96345588518477    4.51156232330454
H        -0.08837903999464    0.35339852245767    1.66527094541406
H         0.36321720026550    1.56466592734918    0.45992242647642
H         1.57438609398807    0.43657596148600    1.07698145139231
H         2.26887117825443    5.03021415555476    1.73711112840090
H         2.15063136478263    4.61927739166365    4.15996181262534
H         0.99632435899832    5.84434127481187    3.61943703336244
H         0.43210398598720    4.22553948649071    4.02984913286542
H         0.03729209513037    5.69474183421730    1.20572759151296
H         0.34535875671858    4.22174574130783    0.27700033442565
H        -0.66143432252464    4.16481466159841    1.72381403971038

