48
CSD_code = NEVROV | q = 0 | S = 0 | Stoichiometry = C18H24CrN2O3 | MND = 8
Cr        0.28132769889538    2.60856837939642    2.28167003859511
O         1.39880910708930    0.50156146323471    0.83151959648019
O         1.28190997293260    4.07265905926481    1.34401827643090
O        -0.22716289878762    4.73877471245622    2.74311907849436
N         0.94648978868653    1.34592582767100    1.50755219203939
N         0.92737695336118    2.30386060494906    3.94779822590283
C        -2.22869814744526    3.63671925200454    1.04269943289520
C        -1.59206365181468    2.41360974950279    0.89135993481556
C        -1.69218190840275    1.70766792600292    2.14427972316384
C        -2.48794061061293    2.53938247786882    3.00247117066852
C        -2.78727505026849    3.70358615107831    2.34193896042557
C         0.65993498777514    5.02103770760396    1.91858767761885
C         1.00643277974358    6.42524626941728    1.59335915812499
C         0.30900015659449    7.46512613033862    2.20144470049423
C         0.62774819043670    8.77509435305875    1.89859033095188
C         1.64021072804591    9.04984372863113    0.99205359431083
C         2.33605381825118    8.01523793637895    0.38566964226557
C         2.02228167114536    6.70246152778049    0.68293600792200
C         1.96358326997133    1.37298669974093    4.35206986729268
C         0.39739165463602    3.10298883298926    5.03480824603528
C         3.24950867881480    1.62974362434089    3.55866472343551
C         1.50576514202115   -0.08247325584137    4.20422532045091
C         1.43992790866125    4.09442446622806    5.57208280969387
C        -0.19827628865207    2.25329522545956    6.16620619629456
H        -2.31266928472986    4.40623889136831    0.29140613938028
H        -1.27627640690829    1.97848162366547   -0.04872462667738
H        -1.72219313210491    0.62383096150443    2.20325977233716
H        -2.78940519449864    2.27730133640531    4.00335468111948
H        -3.31995507768625    4.54825900535912    2.74160294521321
H        -0.47598235913756    7.22476749094960    2.90294311075860
H         0.08819428804382    9.58480299399337    2.36732958529946
H         1.88757641620752   10.07471240918597    0.75679775303403
H         3.12340673057315    8.23514738561125   -0.32003142924774
H         2.54983583004902    5.88048102510481    0.22225914209319
H         2.20140947542025    1.53186572963466    5.41104879765725
H        -0.42228618024664    3.69534329563825    4.62051960155694
H         3.11006665365395    1.39139787103772    2.50971807579588
H         3.53127239322688    2.67785214127969    3.63880434371169
H         4.05598119108630    1.01686302707887    3.95400285060754
H         0.59543995281513   -0.25085237217741    4.77330646154432
H         1.31364260879923   -0.32184282330046    3.16478000882558
H         2.28059347664412   -0.74709829042276    4.57772472218912
H         2.26820787799925    3.58459903380419    6.05946449351111
H         1.83133759598908    4.69265396245043    4.75020697485206
H         0.97309548799637    4.76044338727366    6.29333399443081
H        -0.74380653295336    2.89991895441274    6.84889775466935
H        -0.88927137921214    1.52313594137784    5.75111681860216
H         0.56653161789842    1.72966816921381    6.73445312393028

