39
CSD_code = NEVTIS | q = 1 | S = 0 | Stoichiometry = C17H14N7Pt(1+) | MND = 4
Pt        4.81425189406392    6.39212124229740    6.45046693659803
N         5.91477818747800    9.33452612915074    6.51326471135925
C         6.39792709375969    9.53594495118340    7.84800753141696
H         6.29370059965075    8.60170111782293    8.40298520570369
H         5.83545079502784   10.33262899367023    8.33640247880270
H         7.44787334747215    9.82801288118578    7.81614601645930
N         5.97048770195919   10.28992873328968    5.57679763697630
N         5.51539694767760    9.80565917555577    4.50414668078602
N         5.16109955334824    8.53540685990028    4.66981925893561
C         5.39908017166703    8.21454446991433    5.93323755464299
N         5.82985741088193    5.38548680627403    5.02796744754312
N         4.29559279479892    4.59143878658383    6.94088362584425
N         3.56631044921335    6.84187036209280    7.95767154488382
C         5.70367633548221    4.03705068995794    5.16610215595967
C         6.28408354388165    3.16673758995166    4.25220292367914
H         6.17296404614858    2.10193874788422    4.37648978257811
C         6.99092060076622    3.67624221012108    3.17337640135723
H         7.44687945706077    3.01059321204527    2.45759147675534
C         7.08098787652245    5.05055954777168    3.02792595560455
H         7.60065651383426    5.49291418474205    2.19412908457619
C         6.48557249360035    5.86826264908586    3.97732163648040
H         6.50845991069445    6.94663434783332    3.87865798877605
C         4.89718761151432    3.58184905223069    6.31066493217150
C         4.71328838812243    2.28157436311663    6.77411437209840
H         5.18384862420058    1.44172154238645    6.29134682059180
C         3.91299123249738    2.08848300460511    7.89348922942297
H         3.75595038798167    1.08987096471523    8.26954240580439
C         3.32582894266283    3.16620749028342    8.54484956890365
H         2.72838637054092    3.00860481719160    9.42694697032980
C         3.54617090279325    4.44276998948459    8.03414228556718
C         3.05419962841514    5.72861549086868    8.55330068664952
C         2.10937424382453    5.82864038343560    9.56751939212182
H         1.71676607570029    4.93556126363317   10.02540271026755
C         1.66455511983646    7.07672845780098    9.97273544534856
H         0.93016629433922    7.16710768978918   10.75719836252967
C         2.17367855003478    8.20044810489951    9.34043324094625
H         1.84578648280830    9.19045307022004    9.61136428182791
C         3.12030503169273    8.03726460322034    8.34238638342447
H         3.53020838804640    8.89719602380488    7.83066887627376

