61
CSD_code = NEVVUF | q = 0 | S = 0 | Stoichiometry = C32H26Cl2Zr | MND = 12
Zr        2.65636210686839    1.55578627293983   13.45862570362847
Cl        4.60734946055654    1.16351798311129   14.69208919690979
Cl        4.00446548315158    2.06251941291043   11.61200410008760
C         0.81203810501309    3.15486600933736   13.61580973151832
C         1.94710053940166    3.87550850825110   13.13409754669086
C         2.94606007261623    3.90267467755548   14.14326333831756
C         2.39453455912950    3.27594314103061   15.30660510439048
C         2.87869532432764    3.12608002058168   16.62078458295726
C         2.05238110743612    2.58964844779174   17.57662489017335
C         0.73883453334346    2.18597064698621   17.27037975883852
C         0.23621348116722    2.29557605645472   15.99766627478309
C         1.05468080106130    2.83029742335412   14.98261464806503
C         2.01088001680181    4.49230054721573   11.80278745511897
C         2.52500615067257    5.77336808151934   11.61524682463469
C         2.55937184350371    6.33410711240710   10.35107710564290
C         2.08097651988649    5.62846848758643    9.26074962666358
C         1.55834711316812    4.35729320553276    9.43938891043642
C         1.51939542386026    3.79273243062404   10.69932019541711
C         0.98880567683331   -0.16436070204128   13.95395115529201
C         2.26652402748010   -0.80159818879241   13.98689048273374
C         2.83590803068894   -0.77422328405915   12.68599489990511
C         1.86279458083526   -0.20010800221776   11.80630034777683
C         1.83123330292235   -0.03476417827588   10.40785576249362
C         0.68270971900709    0.43310194079568    9.81943544149730
C        -0.45694247127586    0.75197079304006   10.58210989008088
C        -0.46015539975112    0.62504441113306   11.94895727071590
C         0.70214499648973    0.15892535957081   12.59544306035488
C         2.84495811044224   -1.39592724815200   15.19890892597734
C         2.73364962982345   -0.71821893903760   16.41422316825587
C         3.25933363714741   -1.26288234192668   17.56948378506587
C         3.89799472305095   -2.49239647551564   17.53280231670563
C         4.00246194556042   -3.17681318466094   16.33435027477057
C         3.47935647953314   -2.63591933060274   15.17352164285344
C         4.32097287975427    4.49880619046261   14.04137272510433
C         4.19219071471055   -1.27566310418173   12.27952714650426
H        -0.15543411661251    3.13921090311224   13.12871184617423
H         3.87475635293569    3.46004137675794   16.87461334432472
H         2.40321939444851    2.48676486364356   18.59227617785848
H         0.11679267801825    1.79280387121653   18.06083090729702
H        -0.78601775061314    2.01433775663300   15.77848071449722
H         2.88127275977618    6.33514698602460   12.46527016046592
H         2.96269472138134    7.32713363079757   10.21745199423675
H         2.11585008407624    6.06622911550354    8.27434965625871
H         1.18650077160371    3.80085002878535    8.59199557204669
H         1.12828939366239    2.78938981062701   10.83432406982772
H         0.26200293436970   -0.20733631628790   14.75606462588326
H         2.68947800665133   -0.30463971167476    9.80896276627780
H         0.63733526461257    0.54614882847792    8.74687104277126
H        -1.34628135818485    1.09254004931749   10.07278973785155
H        -1.35170091588646    0.84007308993066   12.52427982778378
H         2.25199606336949    0.25393496805766   16.44117581603745
H         3.17745452503376   -0.72291176872209   18.50099930322605
H         4.31356023156169   -2.91422456169295   18.43568850351310
H         4.49480697718872   -4.13762884134812   16.30189952578383
H         3.54586519004735   -3.18251276783826   14.24514347627321
H         5.04322083197705    3.86928762672700   14.56604840530643
H         4.35237793143753    5.49426546217903   14.49118619742238
H         4.62532340659717    4.57896647846847   12.99663466251722
H         4.85568903866620   -1.32415724530510   13.14431647803589
H         4.63464124659093   -0.60467107216320   11.53982567729502
H         4.12607311207977   -2.27137474195057   11.83414622067873

