92
CSD_code = NEVXET | q = 0 | S = 0 | Stoichiometry = C42H39AgN6P2S2 | MND = 4
Ag        2.86465828653849    6.80242493620230    2.83200842389664
P         3.39121018487083    6.55342613198481    5.43370687213087
P         4.92417292209768    5.65397270739264    1.87448057340119
S         0.99957889929512    3.83360487731455    3.38599093960988
H         0.93732963129051    5.09716963988063    3.82516825289763
S         2.02740797241966    9.20417140447204    3.20775009024721
N        -0.34505096379133    8.90837268667864    4.46421394368006
C         6.57701650366982    5.94664024262224    2.59268292239078
C         5.08845192148661    6.26500050794707    0.17019177862481
N         0.61286753612915    7.01900656402690    3.90172373571444
N         0.72601618114786    3.50342534272226    0.69806165496548
N         1.59650074120051    5.43400001950525    1.25742684040116
C         1.13067586411765    4.29975403763737    1.72586697918589
C         4.98156515823102    7.40759247651616    5.74440051832435
C         3.60943068642830    4.99075491357493    6.35694799956326
C         2.29016821370844    7.48743483748642    6.53580911759503
N         1.49564668098511    5.39774404679049   -0.08081746071916
C         6.78583404564643    5.56333990183074    3.91697350672165
H         5.98034926419666    5.10512633908164    4.47580159222298
C         4.29907690406227    7.34123049510949   -0.21553491182630
H         3.60974195102198    7.78062029659235    0.50406306399290
C         4.92436641271284    3.85256499903088    1.57711797247699
C         3.53669346138380    4.87854097849011    7.74239778499982
H         3.30429538558213    5.74608707306357    8.34505659365272
C         3.86297635694241    3.85467716018746    5.59443019450011
H         3.87898503161006    3.93790071536038    4.51292429745478
C         0.74655048868324    8.33490538645185    3.86995630807646
C         1.15713387863808    6.86246729933169    7.05214235205202
H         0.98996432351789    5.81078966282979    6.86006931402985
C         2.47382380566635    8.85208338120658    6.73602419355157
H         3.33061819228694    9.34911022416077    6.30324454425082
C         5.54335761407933    2.93449609405187    2.41998730571354
H         6.16397516774268    3.27657253584115    3.23454280243121
C         4.37839356460593    7.83438867850469   -1.50572068261922
H         3.75873538246400    8.66700520570445   -1.80277252966847
C         5.96000901944633    5.68115328992692   -0.74758416572645
H         6.56893042992247    4.83744682468192   -0.44960604457689
C         5.41807828327839    8.29428498085409    4.76444555002894
H         4.81502823112996    8.43721146583584    3.87059965547163
C         5.75226523629502    7.21856859009785    6.88562551748096
H         5.43512241396206    6.52204058215963    7.64804254429182
C         0.24065962238681    7.58770355883767    7.78885936597504
H        -0.63568805572070    7.09642011201774    8.18673404150279
N        -0.56873798210357    6.72926023339903    4.50392712886445
C         7.58943318523715    6.61791371050715    1.91611146336156
H         7.43205855473634    6.95908814071268    0.90326449783865
C         0.98243809386918    4.25233930954513   -0.40958168144955
H         0.78368940461098    3.92889414537465   -1.41022862055937
C         4.15025995617701    3.37879496590804    0.51789847562195
H         3.68132126144459    4.08661027978506   -0.15140125583473
C        -1.12024449485995    7.85193928836924    4.83342891712463
H        -2.06334675350815    7.95354702453472    5.33050797017660
C         4.01480254997451    2.52920434585133    7.58194593952072
H         4.17318077514871    1.57475572593951    8.06244782939870
C        -0.58166344555999   10.30767920220377    4.64277606398462
H         0.26978286785798   10.84227958762069    4.21979766716280
H        -0.66915329816804   10.54455365806805    5.70514735717230
H        -1.49507557039861   10.61050324217933    4.12617440729409
C         6.93752422777913    7.91469182752321    7.04098783600528
H         7.53272373946902    7.76523595502364    7.93086253308230
C         8.00206553026240    5.79116970857631    4.53053613272311
H         8.15370062363383    5.47877938738080    5.55335802227766
C         4.07011462627791    2.63033810870863    6.20177390757245
H         4.26481705755952    1.75596880592041    5.59784355151374
C         8.80091155597119    6.85771431522575    2.53997142788955
H         9.58160709855791    7.37964804081064    2.00556788415926
C         0.43657019832737    8.94328226760083    8.00247376194186
H        -0.28412132166481    9.50960537210072    8.57580291580786
C         0.19226799440661    2.17775300378717    0.79886197198198
H         0.99615842008212    1.46094290248569    0.98230139107827
H        -0.32045993877066    1.92329278569736   -0.12699792274285
H        -0.50736437366220    2.13441722241872    1.63468040491874
C         3.74132215254311    3.65172405932340    8.34754262482997
H         3.68544548229386    3.56960318110474    9.42376902130619
C         5.38765625470975    1.57633824684424    2.20722339625187
H         5.87928359546627    0.87392633337980    2.86485063450333
C         6.03642602981776    6.17837529001198   -2.03456323005766
H         6.71222404654078    5.72552871514974   -2.74606284123963
C         9.01551029870994    6.43616426817667    3.84096949156428
H         9.96432773296891    6.62259461734268    4.32177926071201
C         1.55060219669838    9.57286247524952    7.47117949514978
H         1.69842078589094   10.63270937681295    7.62356362224860
C         5.24690681684735    7.25384619565489   -2.41451371616618
H         5.30872347717331    7.63475649274731   -3.42359918857247
C         6.60058950986395    8.99103832854085    4.92509427050201
H         6.92889287708423    9.67814742724182    4.15929805130982
C         7.36312327173395    8.80104777114268    6.06526349535614
H         8.28947221483055    9.34167403229309    6.19377587417655
C         3.99804772975979    2.02221930640975    0.30975431792670
H         3.40469661932775    1.67051382699170   -0.52331635916536
C         4.61023770672962    1.11397769431677    1.15924955467078
H         4.48890782698815    0.05271859420451    0.99906889666464

