89
CSD_code = NEVZIA | q = 0 | S = 0 | Stoichiometry = C30H52N2RuSi4 | MND = 8
Ru        9.18774999610674    4.13243466285424    5.27652011992321
Si        7.10102545017004    4.35636981491605    6.74793100251399
Si        9.89655271636281    5.67216925329278    7.19670479412106
N         8.43171447269954    6.43032579764888    3.35024783393184
C         8.69971027598045    5.59223175508077    4.12646703061405
C         8.23621284389654    7.23969795504426    2.21219234503256
C         6.73363293910332    7.49827754538135    2.06236694966632
C         8.78442781319988    6.48872646130976    0.99236470626949
C         8.99124418250549    8.55538071766541    2.42668394959979
C         7.51864400340178    4.91356332404627    8.52275101175199
C         6.63953843787637    4.79788896846943    9.59036308277762
C         6.99298150993062    5.24354039056978   10.85183634088837
C         8.23207316204504    5.82820676294337   11.05126696495454
C         9.10698981079232    5.96273951505543    9.98758302483088
C         8.76619558684209    5.50300545461018    8.72326131857688
C         5.85093777605566    5.66569101288020    6.09095964808211
C         6.06449340820507    2.74130606132685    6.98739248820727
C         9.83771639450902    7.53771077203993    6.72181611612260
C        11.67866578242470    5.39308718505122    7.89558000337231
H         7.79472371469656    3.50601275810700    5.04543878847747
H         6.34315954647099    7.98949790821858    2.95101197207186
H         6.20142987058577    6.55937964961378    1.92576298803611
H         6.54887203471539    8.13345254889962    1.20003768610054
H         8.26710289880241    5.54012223777961    0.86521797208434
H         9.84333328806884    6.27485245532065    1.12117990114197
H         8.65065120582319    7.08813059266363    0.09547516265453
H         8.62769571034307    9.05961138586056    3.31946489648014
H         8.84975780900481    9.21038286177450    1.57103142643835
H        10.05516450412326    8.36380828441079    2.54842826441457
H         5.66559513687350    4.35444467525030    9.43913132822437
H         6.30334754011076    5.13942799032969   11.67822750303402
H         8.51268642832671    6.18133482422394   12.03407108547993
H        10.06741524216702    6.43153546415117   10.14822311332145
H         6.30616920366227    6.64958784047662    6.03839471884149
H         4.98800412681677    5.73647326277835    6.74550638311795
H         5.49651176378523    5.41090641325253    5.09664154291734
H         6.68942009436346    1.91988179960079    7.32682326186432
H         5.60260449154722    2.43247841737996    6.05415086075347
H         5.26981583151573    2.87157221518943    7.71434664948382
H        10.13290722100359    8.15815606362464    7.56209880252555
H         8.83717891161821    7.83694428818422    6.42616221166004
H        10.50674864924866    7.75501263006171    5.89454196088003
H        11.87234790169352    6.00375968168666    8.77115670381366
H        12.43139060924128    5.64290011382866    7.15343281926674
H        11.83329592529868    4.35518853598878    8.17745510517015
Si       11.27504888279772    3.90715940154398    3.80599531484966
Si        8.47965587129808    2.59060185611708    3.35767147369726
N         9.94239873900719    1.83434686768370    7.20315028589258
C         9.67556318138472    2.67256980258595    6.42662450206889
C        10.13835640036805    1.02480780958488    8.34093932242937
C        11.64105570965383    0.76658225567444    8.49024641023278
C         9.59026551925639    1.77540773619402    9.56104392042716
C         9.38354840119559   -0.29099789915988    8.12648524453598
C        10.85887358955873    3.34598458651669    2.03209406397323
C        11.73897975695853    3.45903183280524    0.96502708656963
C        11.38646385467098    3.01081887900689   -0.29580669157835
C        10.14736827773174    2.42607081114275   -0.49505629294956
C         9.27141482947727    2.29424691895868    0.56811903253217
C         9.61123320478103    2.75671488113622    1.83169474422318
C        12.52526638712037    2.59976219166505    4.46659415291260
C        12.31160949513569    5.52182749793019    3.56391251424530
C         8.53679541888900    0.72570432330628    3.83530210117852
C         6.69828337077065    2.87026546928730    2.65713291751848
H        10.57981422272920    4.76147361842776    5.50641510434172
H        12.03134350301169    0.27558832334957    7.60139409703546
H        12.17301522062565    1.70563353527358    8.62671583197947
H        11.82635343780999    0.13137826707728    9.35243933508440
H        10.10766139719372    2.72393204846887    9.68848775938935
H         8.53136135095158    1.98938587946787    9.43235828949222
H         9.72404614673114    1.17567917937728   10.45771771962224
H         9.74716636406659   -0.79523808292724    7.23373991348800
H         9.52515738584617   -0.94590049779834    8.98219313552885
H         8.31959152634604   -0.09961172780034    8.00476631860404
H        12.71266246745143    3.90311067016477    1.11602124075053
H        12.07644986047724    3.11382474788083   -1.12203937948650
H         9.86726015012582    2.07142533029061   -1.47744023645551
H         8.31109440762655    1.82519513928220    0.40771603963855
H        12.07069912785297    1.61560346509001    4.52015872582164
H        13.38912914217810    2.52858492749413    3.81329711767134
H        12.87819768360706    2.85642925963686    5.46097115238307
H        11.68658469038390    6.34235670616143    3.22250858783008
H        12.77308183723409    5.83257692604493    4.49675210628117
H        13.10650636340984    5.39003476737774    2.83744762826642
H         8.24146582565235    0.10449243196307    2.99563366375811
H         9.53716489321668    0.42639735935445    4.13144516747037
H         7.86746754127762    0.50979808850454    4.66272822800624
H         6.50525194664662    2.25941208126892    1.78155328444061
H         5.94458064898813    2.62117032416452    3.39854652341170
H         6.54457574653460    3.90815370155694    2.37470070343102

