113
CSD_code = NEVZOG | q = 0 | S = 0 | Stoichiometry = C42H64N2RuSi4 | MND = 6
Ru        4.75790813636962    0.00047295610541   -0.00060127256569
Si        6.28332130044732   -2.05509424430616   -0.04709292320201
Si        3.91597880695646   -1.49102331730611    1.86070990008039
N         6.03670631402360    1.76576723582827    2.19650401228032
C         5.49002634367430    1.07683443800665    1.41554589511707
C         6.71791315517699    2.86754943522347    2.75301578870056
C         5.70126303333144    3.94068219039117    3.15730330256467
C         7.67386444105765    3.43807162503997    1.69728038320064
C         7.51364628837554    2.42039393186836    3.98299101237629
C         6.44646968718627    5.13987347383426    3.74009717978784
C         7.24215769142860    4.69997182056460    4.96906012317287
C         8.25197756487985    3.62664025392126    4.56334473784516
C         9.20683522685807    4.19790226369733    3.51512901061744
C         8.41012714245142    4.63885995622281    2.28715853676041
C         7.39524728398878    5.70897758793780    2.68614951363608
C         5.22105788228660   -3.56240520967991    0.44759725136069
C         5.46471663188399   -4.86154641689596    0.02530984442702
C         4.64454758576881   -5.90389745563027    0.42533510938858
C         3.58357170228568   -5.65307978233604    1.27821719112907
C         3.35488469739007   -4.36370442025821    1.73015970442346
C         4.15775281091100   -3.31066846549434    1.31737265780522
C         7.81186606776896   -2.15499175528386    1.12092497658543
C         7.02522959289711   -2.39534890637977   -1.79297416572363
C         4.82052329752808   -1.30521209174551    3.55598334481448
C         2.06244549003550   -1.39489411714521    2.40136937440386
H         6.29865527243681    0.04494904900489   -0.24975354187603
H         5.00826158624160    3.53008018179934    3.89543576280997
H         5.12635307422192    4.23856119219348    2.27817575651123
H         7.10318070646369    3.73361847506957    0.81407896015629
H         8.38493852153450    2.66488352557323    1.39550034314695
H         8.22451091781482    1.64193211490785    3.69588380365863
H         6.83393010727876    1.99730777805345    4.72634330540229
H         5.71937661172354    5.90630434136465    4.02983733437559
H         7.76550391228020    5.55654718567013    5.39917293897849
H         6.56463453503885    4.30578402864816    5.73001605686926
H         8.82221791709755    3.30909376816810    5.44341374066664
H         9.74726885250394    5.04997843150877    3.93292626137050
H         9.94265894905550    3.44248221118829    3.23008816367348
H         9.09240447708017    5.04506459406862    1.53269400247393
H         7.91404227634165    6.58286398398202    3.08620689008456
H         6.82751664201084    6.02325238760330    1.80767174270514
H         6.30110089148894   -5.06822713022420   -0.62837668992545
H         4.83320478259104   -6.90913294555609    0.07330821777686
H         2.93738617037823   -6.46163851709277    1.59149455286314
H         2.53193299618758   -4.17671240749579    2.40422450222811
H         8.35499202993034   -3.07816566374504    0.94423179017155
H         7.52201215153137   -2.14311955631978    2.16569538141402
H         8.49761159525116   -1.32969390659481    0.95512104215807
H         7.23813344764285   -3.44846938033477   -1.94180115127634
H         7.96107783616196   -1.85902721768176   -1.91268821635825
H         6.35753609045378   -2.07611595688476   -2.58677708402376
H         4.48671001021600   -0.40735511156611    4.06729244543404
H         5.89753365993293   -1.23758288389448    3.44616967229895
H         4.60208629458126   -2.15360221378687    4.19788998198364
H         1.87337168541336   -2.03939064613004    3.25431836867981
H         1.38904822684320   -1.69227057718528    1.60264496853596
H         1.79721075365158   -0.38529631297546    2.69681962495117
Si        3.23344499897992    2.05961842816372    0.05426123414807
Si        5.59022192935227    1.49366046119111   -1.86760321552963
N         3.48493748725993   -1.76993179741981   -2.19722565088419
C         4.02919785051167   -1.07889545080667   -1.41649331394191
C         2.80319851680243   -2.87155587458675   -2.75347864561302
C         3.81926776226756   -3.94616684572433   -3.15525822875977
C         1.84497805136773   -3.44021227734485   -1.69880836497817
C         2.00952465485403   -2.42506255225377   -3.98506220115210
C         3.07377312954691   -5.14521020233426   -3.73803843093824
C         2.28023858712551   -4.70577233949806   -4.96857855719010
C         1.27082086425388   -3.63109969934088   -4.56543593722200
C         0.31391650097029   -4.20050933083618   -3.51808881767869
C         1.10841536330246   -4.64093708864472   -2.28849970258295
C         2.12289585159674   -5.71237957131517   -2.68494112937566
C         4.29683931626767    3.56499747438291   -0.44321562522025
C         4.05685939510189    4.86407435949787   -0.01852355491802
C         4.87593372858436    5.90582469440942   -0.42225631906145
C         5.93198427669227    5.65444792130896   -1.28105923041017
C         6.15651052792889    4.36524855328121   -1.73564667331082
C         5.35464243909392    3.31274707082456   -1.31951293336435
C         1.70058165690230    2.16541686370713   -1.10741771958782
C         2.49956576508351    2.39611395025430    1.80405735919068
C         4.67464517493816    1.30978260342115   -3.55701533547598
C         7.44006572891350    1.39630574296617   -2.42016815949811
H         3.21467176210097   -0.03565984546725    0.23724475488618
H         4.51372530255213   -3.53690302526007   -3.89277169752749
H         4.39268219514021   -4.24367983316920   -2.27500363470203
H         2.41396392731108   -3.73537372537405   -0.81441283462047
H         1.13414536370395   -2.66604307530027   -1.39896427077079
H         1.29896630846252   -1.64566843392250   -3.69972086496501
H         2.69062647479790   -2.00330184547446   -4.72788638198996
H         3.80049509968140   -5.91265840919843   -4.02601276474097
H         1.75672735573075   -5.56227967593870   -5.39863391761899
H         2.95922010370039   -4.31293476451471   -5.72892821304226
H         0.70214862629799   -3.31390299601090   -5.44666332698806
H        -0.22665206155193   -5.05250993314175   -3.93587077696256
H        -0.42167729123432   -3.44417586092221   -3.23487497411891
H         0.42465032332264   -5.04579973819135   -1.53465060080684
H         1.60389820613555   -6.58620918652153   -3.08486598665631
H         2.68906351472109   -6.02625046660601   -1.80531820041146
H         3.22405232687088    5.07124986823122    0.63957432020807
H         4.69040524992711    6.91094836775477   -0.06830543837231
H         6.57760199991481    6.46248564233849   -1.59682730357221
H         6.97548283883843    4.17785888042744   -2.41439000506158
H         1.16066898503796    3.08974014103624   -0.92671336930450
H         1.98648349761820    2.15491942746557   -2.15333210585004
H         1.01333422358041    1.34153290232369   -0.94047518540142
H         2.29605010981369    3.45016460415416    1.95915153545266
H         1.55933381729223    1.86742776797159    1.92322159778221
H         3.16612680893187    2.06698588724341    2.59475281212330
H         5.00764084912824    0.41370898659807   -4.07195772180923
H         3.59851738001023    1.23918281796514   -3.44064713456559
H         4.88717731770559    2.15995511669574   -4.19851461239775
H         7.62435760397816    2.04025318096570   -3.27457354151021
H         8.11897305856226    1.69311241798796   -1.62590029711734
H         7.70223800785164    0.38628590504316   -2.71687012310194

