121
CSD_code = NEVZEW | q = 0 | S = 0 | Stoichiometry = C46H68N2RuSi4 | MND = 8
Ru        4.71420130296911    0.00035633980836    0.00014712895318
Si        3.01354102655449    0.59806142154747   -1.84110262388237
Si        5.32981351622856    2.41130256965148   -0.66849672622949
N         2.71275116562442    1.25317948706710    2.01021790767202
C         3.48262346943851    0.75099888100261    1.27144733522519
C         1.79991493343204    1.91213016955982    2.77126703791402
C         1.15730054810274    3.04789623522007    2.25012805535417
C         0.22917026074209    3.69458025633214    3.05131987686866
C        -0.05927132763854    3.24068646358905    4.32502169275909
C         0.58391624863115    2.12300612386162    4.82325392888605
C         1.52010589649321    1.44026575443657    4.06317756300555
C         1.45832331454033    3.56409924615724    0.86459504437820
C         0.20278426514573    3.54334898435109   -0.00927149485655
C         2.03878303108025    4.97827904897526    0.92850802818466
C         2.22011736265445    0.22386581400740    4.61888406854678
C         1.21106733181913   -0.87812915605893    4.94965440315809
C         3.04215010004753    0.59626219605868    5.85514382746961
C         4.01873930694004    3.24928174000415   -1.76905158582198
C         4.07107077721718    4.59463166427951   -2.10843732612018
C         3.11845011987406    5.15215602893695   -2.94272759608270
C         2.10544792574017    4.35870742645953   -3.45645171507377
C         2.05396750344532    3.01479193221054   -3.13132486306624
C         3.00004632318012    2.45141682203279   -2.28553117729622
C         6.95371441884921    2.56768158467516   -1.69443580822726
C         5.57770971996128    3.59885976756484    0.83538166829898
C         3.32176609379546   -0.27304540396084   -3.53238858606830
C         1.18656184195354    0.16078758924966   -1.38914936588944
H         3.58213961285466   -0.88533255138386   -0.57171484811383
H        -0.27762339770808    4.56910301385982    2.67341107883494
H        -0.78651304282588    3.76006474143039    4.93113434899675
H         0.35296591319575    1.77792476719130    5.81942537109431
H         2.20487354362478    2.91736493152380    0.39288318924653
H         0.46500732971343    3.81884549333884   -1.02772113381510
H        -0.54272434781727    4.24363230017164    0.35972488594406
H        -0.23680815078403    2.54900170069005   -0.02375518786579
H         2.34064321638135    5.29277417999253   -0.06737456349886
H         2.91104752670101    5.00469727001888    1.57711262782307
H         1.30548156008202    5.68495706057853    1.30980158544249
H         2.90649321525991   -0.16122933694540    3.85695523369606
H         0.62417653300154   -1.13288547190499    4.06982971083241
H         0.53092519952735   -0.56092788092252    5.73629111095973
H         1.73187261433074   -1.77152724138139    5.28791837012691
H         2.39965327688217    0.95093634222263    6.65737571532843
H         3.75624236831853    1.38090051809085    5.61451402292719
H         3.59089257847307   -0.27169941513844    6.21471500255422
H         4.86613612477807    5.21487946372490   -1.71900543223392
H         3.16396737564116    6.20251319444085   -3.19593067554382
H         1.35991131050469    4.78961046133822   -4.11063823907989
H         1.26791554360548    2.39751537138337   -3.54318233529451
H         7.29696228720676    3.59737694309428   -1.70954188154541
H         6.79665730006674    2.26229771303963   -2.72305241758381
H         7.75315866513509    1.95766303584595   -1.28394667290292
H         4.83013937504258    3.42906716149893    1.60523231025132
H         5.51459448513885    4.64106016168659    0.54057421966191
H         6.55275279728652    3.44403176797280    1.28911328120132
H         2.44257347249008   -0.19760074886570   -4.16468403023304
H         3.55221424589623   -1.32748774792001   -3.40972699351821
H         4.14585894753379    0.18829392725661   -4.06527979306054
H         0.96206303619130    0.40301756720345   -0.35413658876687
H         1.00326108342282   -0.90190989699138   -1.52166141708116
H         0.47853889696300    0.69633750049394   -2.01290816557954
Si        6.41439964721774   -0.59827206486496    1.84162963402478
Si        4.09808699512845   -2.41081831661769    0.66818943602309
N         6.71579147933226   -1.25263773384570   -2.00968004806817
C         5.94593166710822   -0.75041234000120   -1.27096113674978
C         7.62820365413383   -1.91188401376533   -2.77101305020299
C         8.27073448211441   -3.04776131126777   -2.25000952437449
C         9.19870246729972   -3.69450743994177   -3.05133653264158
C         9.48705020157356   -3.24059151859475   -4.32505591791426
C         8.84388189377265   -2.12286158024709   -4.82319120977927
C         7.90784256981660   -1.44005876722947   -4.06298020199460
C         7.96967805234214   -3.56407852005442   -0.86452492379390
C         9.22520776256232   -3.54364399717467    0.00935891488481
C         7.38901838554370   -4.97817022555727   -0.92867601164407
C         7.20776496966759   -0.22367544766603   -4.61863922300193
C         8.21673654838299    0.87829716837792   -4.94970161229001
C         6.38548790031323   -0.59617819574413   -5.85470524414927
C         5.40887839429182   -3.24932464002330    1.76860966382439
C         5.35626759501439   -4.59479909103519    2.10744216408546
C         6.30869776024517   -5.15281615649441    2.94161311960440
C         7.32174937632971   -4.35972236352793    3.45579556504631
C         7.37345985756263   -3.01567258923442    3.13125418493927
C         6.42759860308338   -2.45179542592450    2.28554542690337
C         2.47393248886038   -2.56696851581739    1.69373007119832
C         3.85026900626847   -3.59772027988466   -0.83620884613112
C         6.10591156639718    0.27219713171416    3.53323076605293
C         8.24163908069261   -0.16118318827021    1.39049778817057
H         5.84638080449687    0.88587582635649    0.57207753539118
H         9.70542566435756   -4.56912568169402   -2.67354669234537
H        10.21413225076364   -3.76005987012626   -4.93129059324763
H         9.07469246517567   -1.77780084796634   -5.81940442228840
H         7.22321897381886   -2.91729853433502   -0.39273180623655
H         8.96293891512800   -3.81940274555052    1.02772708346021
H         9.97068129996876   -4.24387549642142   -0.35981243152992
H         9.66485564975278   -2.54932308238165    0.02412618759173
H         7.08710148577769   -5.29278889006999    0.06714879086758
H         6.51675559818186   -5.00435734146590   -1.57729858857875
H         8.12222711256985   -5.68488650132439   -1.31008128230370
H         6.52153419264145    0.16148830028202   -3.85661410104310
H         8.80376187357311    1.13316826940436   -4.07000293878084
H         8.89675410419709    0.56102537828126   -5.73641570588142
H         7.69585578197478    1.77164667789032   -5.28798198149233
H         7.02783678440667   -0.95083094374694   -6.65706402034349
H         5.67151242127681   -1.38086672708501   -5.61389987550471
H         5.83660019361210    0.27172855444550   -6.21418736944402
H         4.56113888299364   -5.21474830056860    1.71766619394895
H         6.26300556028411   -6.20327976824227    3.19434229043934
H         8.06716584303427   -4.79102573518823    4.10985376186631
H         8.15956783592706   -2.39869662584785    3.54344579499117
H         2.13047931044291   -3.59659925196901    1.70854814620324
H         2.63083059081842   -2.26182236623899    2.72243942471982
H         1.67469031882327   -1.95671131966053    1.28318912447813
H         4.59812340101506   -3.42790465094035   -1.60578340116077
H         3.91300208987345   -4.64002667463795   -0.54171411358236
H         2.87539612536708   -3.44247391876196   -1.29016167040922
H         6.98478976037645    0.19638271962426    4.16574127831470
H         5.87578507403389    1.32662579664741    3.41096513034322
H         5.28167530707587   -0.18899763449461    4.06576967107500
H         8.46642368919540   -0.40311746013051    0.35548159218520
H         8.42504717457379    0.90144893917403    1.52339905917494
H         8.94937408650101   -0.69703595421754    2.01432628983274

