123
CSD_code = NEWBIC | q = 0 | S = 0 | Stoichiometry = C53H62BO4P2Rh | MND = 8
Rh        8.68987327812096   12.19426809176665    4.13676415664312
P         9.33173594607752   13.70562343409783    5.65277172137164
P         6.73012309782177   12.86297245788946    5.07033970567665
B         5.97347098447861   10.35998314528164    2.70915111350295
O         7.06247546591233    9.50442929195442    3.36725595995223
O         6.74470715158142   11.24184932506247    1.79171085593069
O         4.94313055784581    9.58741045197003    2.08811916673614
O         5.31665040702457   11.15228040244776    3.81564322454376
C         7.61116650509644   14.14705194281535    6.17806167555003
H         7.43957457582529   13.99527985350266    7.24553562013259
H         7.36866800458615   15.17909047910970    5.91609990975467
C        10.12863919544946   13.20199785880166    7.21006657860176
C         9.49250437301933   12.19112761108003    7.92803644069588
H         8.55116362069796   11.79717748911340    7.56072466823996
C        10.06441139648985   11.68997277261464    9.08054437280575
H         9.56320885708469   10.91221397086089    9.63769474244000
C        11.28748333221763   12.17954537489966    9.51450155668597
H        11.73781228327124   11.78646834715780   10.41379056199446
C        11.93699860187349   13.16311872973177    8.78813175625994
H        12.89593369118092   13.53458250926140    9.11891458593106
C        11.36541719842452   13.67171947735596    7.63430101081199
H        11.87811969651309   14.43433422166371    7.06464083085914
C        10.07736560139396   15.32043591740585    5.26395803267859
C        10.51851372981631   15.53955742352417    3.96540104715336
H        10.44049180733354   14.72880545135285    3.25001789798505
C        11.03481014526084   16.77095495073150    3.60383197761932
H        11.37773258811091   16.94194292616567    2.59380172878856
C        11.10806275423172   17.78743226173108    4.54198321987816
H        11.51089912103977   18.75004439044034    4.26391173806266
C        10.65999130003092   17.57549311150482    5.83729281051229
H        10.71355625376747   18.37361115584672    6.56332720286282
C        10.14140149089442   16.34658821235422    6.20054706232448
H         9.78573319544268   16.17343486064614    7.20728948636750
C         5.65573722556969   14.02256929984668    4.16977733733561
C         6.34937827750163   14.95819862892617    3.40686082873671
H         7.43542812083966   14.92911044091822    3.41124692716358
C         5.66960221133138   15.89638791222571    2.65656354032178
H         6.21546190176626   16.61628561302529    2.06387977000143
C         4.28311796388474   15.90420613810721    2.65958151102504
H         3.74532436307803   16.63126645257528    2.06886562240473
C         3.59002781403065   14.97343455351545    3.41390846371141
H         2.50961613627545   14.97369909789036    3.41182376581788
C         4.27013438776853   14.03222734442446    4.16904270081467
H         3.72110240548317   13.30114841420659    4.73708440099125
C         5.81966556437541   12.03437354548594    6.40583320083356
C         4.99839529143249   12.76097237356595    7.26097480024063
H         4.84104297054148   13.81732926915363    7.08595899814124
C         4.37929928346712   12.12640459087959    8.32289777619697
H         3.73357731530642   12.68749458580148    8.98347523693582
C         4.58368021855650   10.77153880693661    8.53688217628558
H         4.09401115195649   10.27888571341998    9.36451441816839
C         5.41165579496036   10.05060087659751    7.69201247681975
H         5.56850406200352    8.99548851752811    7.86119063991338
C         6.03565730117442   10.68150077150203    6.63036302154201
H         6.67424147488268   10.13222257507429    5.95176514323609
C         8.18132330129774   10.17619621568152    3.19371785241600
C         8.00389950716767   11.22460314122574    2.21910828281376
C         9.11256884630918   11.91291100886779    1.68820637057303
C        10.28595437104786   11.78203940707192    2.45444353759608
H        11.16018221834870   12.33561557901853    2.14487346519829
C        10.46076865759574   10.81894473791656    3.49589740975217
C         9.43237954692952    9.88938441895759    3.74755196142030
H         9.55709169731996    9.01669766664039    4.36800696716762
C         9.00664467764811   12.70516173008662    0.39751428183290
C        10.34949793411971   13.30009746374636   -0.03589827372550
H        10.71684870163845   14.02303046895975    0.69010709604766
H        10.22090717484314   13.81707185712002   -0.98438941868566
H        11.09774762971801   12.52229451849528   -0.17538853004586
C         7.99071476780660   13.83896892629063    0.57220948655512
H         7.04398825857071   13.44177102778479    0.92773706752342
H         7.82408315582395   14.34536167995561   -0.37635830779344
H         8.36140142426852   14.56586488772846    1.29287727889789
C         8.51510947361558   11.74009697704174   -0.69081304534223
H         9.22043944905206   10.92091000614070   -0.82130823262708
H         8.41270311596944   12.26466552227921   -1.63836763340855
H         7.54899460517401   11.32787421017118   -0.41374768366812
C        11.83066091580452   10.65722621616935    4.14886972762986
C        11.69660127099931   10.03272800561612    5.54351340106823
H        12.65318535790614   10.06711599579088    6.06034026870970
H        11.38901804397853    8.99248431730078    5.48876112094571
H        10.96730575232298   10.58656483251536    6.13357844558784
C        12.53602257284816   12.00995315005746    4.31378659421499
H        11.86967063343740   12.72340141533929    4.80181753254563
H        12.85687509699805   12.42350812122640    3.36147339866898
H        13.42153370466088   11.89021194161200    4.93380634685051
C        12.67599188578678    9.74164081490703    3.25224313183974
H        12.80288792921231   10.18041630691650    2.26488025261815
H        12.19393775889129    8.77387309272202    3.13497899877251
H        13.65874036233845    9.58935911141754    3.69293051444144
C         4.06094291313513   10.62540652521608    3.90405405511640
C         3.83499155114670    9.71611630909588    2.86472131462762
C         2.62197577615258    9.05783888665100    2.72482675771994
C         1.65599146019663    9.35135095778852    3.68369105074925
H         0.70150319078345    8.85916283198669    3.61041658691838
C         1.86459731885773   10.22868320548402    4.74102375502094
C         3.09601488446262   10.86925269887316    4.85797822400293
H         3.30945326548284   11.51699580227604    5.68820896362673
C         2.40978219731838    8.06990474518416    1.59025450339641
C         3.43811459060470    6.94064694157332    1.73494597565442
H         4.44296232858201    7.35138474364518    1.72281179037118
H         3.33793140974177    6.22955583238843    0.91676697034823
H         3.28876103854188    6.41361361293731    2.67560794083940
C         2.63216377746480    8.79900375058268    0.25919593437719
H         1.90855189709437    9.60416280989796    0.14491929389888
H         2.51945428169946    8.10805968698522   -0.57447290014741
H         3.63119960036218    9.22264386606002    0.23140932624166
C         1.00657767447339    7.45833481040934    1.58462120160685
H         0.81809857445640    6.89975796681272    2.49881487394715
H         0.91776202845211    6.77014432899444    0.74593730555994
H         0.24485393070294    8.22674432139350    1.47197606973692
C         0.74335583968838   10.44696532579349    5.75015309258907
C        -0.51977752964681   10.92528190461595    5.02000363758660
H        -1.31715586006138   11.12003523302898    5.73505004630502
H        -0.87444164963134   10.18312778688590    4.31133919511930
H        -0.31089974976346   11.84316886107818    4.47490429292468
C         0.45688605164381    9.12188491785870    6.46995387613957
H         1.35307538290994    8.77545588255754    6.98016215399658
H         0.14800691538380    8.35347182632392    5.76720815355865
H        -0.33449453746421    9.25296933468920    7.20589296820803
C         1.09519534174576   11.49496422892149    6.80981990699552
H         0.25164647467873   11.62493652818850    7.48590378424348
H         1.31021248401591   12.45714116789110    6.35042173632967
H         1.95403990375688   11.18224417475874    7.39815331907140

