83
CSD_code = NEWHII | q = 0 | S = 0 | Stoichiometry = C37H41BrN2NiO | MND = 4
Ni       17.07259829569027   12.34039222909164    8.93442307895197
N        17.09975721846349   13.66033651885226   10.50901673479024
N        16.72118978212859   10.99371948055134   10.23459328482659
O        17.07392787738186   11.09558080826525    7.59876273306828
Br       17.56454868067670   13.90947592973555    7.42634079797903
C        16.63046944697499   11.47434466060831   11.60706432887680
H        17.60393033918691   11.31807635494235   12.09287056879280
C        15.56460340649564   10.78330054682643   12.42933353282393
C        14.29722801530578   10.57379120429790   11.89832167283202
H        14.08673365663196   10.86239974153535   10.87768280269713
C        13.30881397728708    9.98089332537674   12.66165610679276
H        12.32972936553851    9.81747032433520   12.23674037926948
C        13.57355793424648    9.60035900957274   13.96651895807679
H        12.80079551149172    9.13972635629785   14.56330811612944
C        14.83242368383001    9.80940733059634   14.50183338105844
H        15.04609729688096    9.51336692742620   15.51797200117727
C        15.82471868565233   10.39550250429088   13.73588111473291
H        16.80609246799493   10.55327973820732   14.15976057445793
C        16.28816590580151   12.97386413672026   11.55261284206899
H        15.25425296116592   13.03090235659080   11.18240931812611
C        16.30788173630681   13.60891912797430   12.92609703233500
C        17.35580254072352   13.43927024206349   13.82348231387138
H        18.21537904174048   12.83961286543980   13.56562417967462
C        17.32674355421463   14.04386066007516   15.06636451496753
H        18.15506044173547   13.90552866173377   15.74517585450321
C        16.24605876409868   14.82179744485833   15.44055678780797
H        16.22800599897019   15.29634795504684   16.40982811717323
C        15.18560208332158   14.97841176377496   14.56682094284409
H        14.33003934136859   15.57217077188210   14.85154097664292
C        15.21649069002787   14.37203452771343   13.32482595614704
H        14.37508638060314   14.49474304233014   12.65712994713279
C        18.52986872658538   13.81805618444054   10.88467522761869
H        18.91460862934987   12.93945646368025   11.40151459672520
H        19.11573080094670   13.95974159693509    9.96574423320472
C        18.57462407615867   15.08051757462471   11.69581074785813
C        19.51537904921286   15.54178568770950   12.58880710520054
H        20.41056895794866   14.97595756093466   12.80030465291282
C        19.27859766836977   16.75685373649249   13.21911254889874
H        19.99739355781421   17.13631479068280   13.92968349268259
C        18.13223044379433   17.48401622054514   12.94956281235682
H        17.96605062086795   18.42380049599823   13.45421451720701
C        17.19221111431450   17.02194535448069   12.03723759283374
H        16.30188659607945   17.59342566777581   11.82370184562488
C        17.42636315942832   15.81501539876161   11.41716958353953
C        16.62195427077828   15.06469228190663   10.39980999668162
H        16.85748761356704   15.44848789548425    9.40097363963819
H        15.54405655121199   15.12815092293723   10.54591232529376
C        16.63760983205815    9.71761355359304   10.03499995270145
H        16.50041054761932    9.06861817676142   10.90268265778341
C        16.68395853242390    9.06842011298009    8.78037038355327
C        16.50517467133224    7.67420828609327    8.72671687755322
H        16.35343062330532    7.15596882370437    9.66278589160593
C        16.51094084922599    6.99945806805747    7.53458322808522
C        16.71174328079580    7.75565177165243    6.36602227671408
H        16.72038374087868    7.23326600772546    5.42716756507142
C        16.89763604420679    9.11648516114977    6.34627967710248
C        16.88836970695584    9.82375213761510    7.59115073132800
C        16.29989829124978    5.49198823454633    7.50957742057366
C        17.40510111638188    4.81720184182216    8.33427421084857
H        18.38225669229676    5.05824792871887    7.92089810127383
H        17.28010101698254    3.73645111062784    8.31803853562545
H        17.38303295828574    5.14616972955218    9.36965475165823
C        14.92800613854828    5.17097627899827    8.11996433997665
H        14.14095672770131    5.66805882399037    7.55659756041310
H        14.86746362880467    5.50185547211337    9.15328072375564
H        14.74624539443417    4.09848968606007    8.09474185586706
C        16.33871184429282    4.90737043778959    6.09517457207969
H        15.55157129839660    5.32888486024334    5.47425899013854
H        16.18447660886802    3.83116540897373    6.14546582602026
H        17.30219930801930    5.08496930441358    5.62306076992417
C        17.11807735955944    9.88825714066462    5.05195919290030
C        18.48690988637143   10.58064387609249    5.10170614633482
H        18.52298686919782   11.30745199447423    5.90634095366000
H        18.67191582560805   11.10475762987021    4.16732574845517
H        19.27777510296312    9.84792182012317    5.25425985367306
C        16.01059987451388   10.93828229255038    4.88944474113361
H        16.04748351722862   11.66632667728550    5.69312142129085
H        15.03168309851704   10.46131418323699    4.89127712649049
H        16.13846687110553   11.46964371971768    3.94958307940182
C        17.09300551195237    8.98234391007138    3.81604505335300
H        17.25410490018629    9.59150438363959    2.92923821639913
H        16.13144681807401    8.48452054709226    3.70823362171624
H        17.88366859313624    8.23585622775829    3.85503407664807

