54
CSD_code = NEWMIN | q = 0 | S = 0 | Stoichiometry = C21H25AuCl3N3O | MND = 4
Au       12.88400067726614    6.22583153615595    5.29898208011403
Cl       12.83376467577146    8.30439032390989    4.43396101492873
Cl       11.09369900295375    5.59618744083242    4.04139810413448
Cl       14.69281195803616    6.69914135066463    6.57924104431665
C        12.87705823222792    4.41039651411870    6.13538607358638
N        13.68209122657381    3.40592238372019    5.77295755269909
C        13.40895219723848    2.30621283657679    6.53309794366149
H        13.93799837866885    1.38288028238405    6.41680521160012
C        12.40983622903438    2.65217345249223    7.38327267646590
H        11.90677988368679    2.09182952169548    8.14446213236915
N        12.09649452995552    3.95515756629108    7.11991491481530
C        14.69393022161180    3.50256478704427    4.74490616857658
H        15.12583967780256    2.51223688609678    4.59287769464102
H        15.46879022239993    4.19866640287252    5.08213170788135
C        14.10480248513989    4.05479540887073    3.46788915049339
N        14.31292182788154    5.35782197930560    3.29467592301936
C        13.86117157638743    5.93981210886621    2.19829689059590
H        14.08555681184604    6.99347055598069    2.10381164184003
C        13.10028872749030    5.28279226240011    1.24009407308336
C        12.59886454004389    6.00516555031995    0.03261932642605
H        13.35646852849652    6.69575862699972   -0.33155283117873
H        11.71356992293917    6.58761554068267    0.28934544427111
H        12.34265725540891    5.29986198549800   -0.75466381436776
C        12.80327013194808    3.93869130078729    1.47887690038609
O        12.00381391349521    3.22996689709926    0.61183087271690
C        10.61754234185090    3.44687872990164    0.81840216978930
H        10.31421804031039    3.11059299497409    1.81487785712340
H        10.10640407235151    2.86176031443424    0.05628894496247
H        10.35333721087306    4.50178659235944    0.71631032492617
C        13.34229545941133    3.28703295971715    2.59699255370317
C        13.06190108468905    1.83687032104232    2.84400851310364
H        13.98690852968369    1.28418760151057    3.00176343410042
H        12.54925621707332    1.41508216529058    1.98384003029272
H        12.43047185003630    1.71476114616393    3.72418790093006
C        11.08762424532024    4.70351683787205    7.79678624271712
C        11.45505950878098    5.51817202221655    8.86717110446696
C        10.46327838825086    6.27087531545217    9.47991314303435
H        10.73376329423475    6.91791967311612   10.30119834611852
C         9.14237980535614    6.21121367520633    9.06202927939091
C         8.80535625798783    5.34485187185524    8.03008852702325
H         7.77460952141084    5.27068880830773    7.71628970722422
C         9.76015183201276    4.57470310682499    7.38589402618930
C         9.37810600043604    3.63754258186645    6.28403945243384
H         9.75310627597861    4.01421195059073    5.33217338959883
H         8.29707691182534    3.55401182955418    6.21787016291000
H         9.79592897996196    2.64441854181104    6.44715945654460
C         8.08866698948933    7.05547172088426    9.70772928006950
H         7.77728775100057    7.84297466436900    9.02191960319148
H         8.46153932535094    7.52005004620971   10.61657374111887
H         7.21107939673458    6.45846352119870    9.94880612256525
C        12.86643543536072    5.55724189116220    9.36062339878887
H        13.24169085835208    4.55000675740563    9.54171565952910
H        12.92667369676936    6.12153409774934   10.28674681231542
H        13.52471788480302    6.02823475930093    8.63098291878111

