30
CSD_code = NEWQOW | q = 0 | S = 0 | Stoichiometry = C13H8ClCuN4O3 | MND = 5
Cu        3.91934011362284    2.08743357895737    0.57805571101175
Cl        3.11250303253210    3.95058355539091    1.66455619467171
O         0.69847380000682    0.77300054445641    2.43951596211869
O         7.38713986255110    3.89444701052849    0.56454150038834
N         5.24719771263231    1.50887126224005    2.00756467277995
N         5.32790428017626    3.04020700610884   -0.03941591835104
N         3.30699074310779    2.15834279072404   -1.32206072987495
N         2.60616415037527    1.04126648619983    1.11195738245962
C         5.04518822657320    0.71544145200339    3.04721893390623
H         4.19427317227757    0.05233418188164    2.98369971607019
C         5.88003478768403    0.74275087231418    4.15336895175492
H         5.68879311644829    0.08392280401792    4.98528030611028
C         6.94788249155482    1.62878035075171    4.16976614307460
H         7.60666039802254    1.67836761409056    5.02362460726281
C         7.15252533285100    2.45198851908845    3.07408562225035
H         7.96173812249134    3.16352320987065    3.01956711945810
C         6.27049758560067    2.36501889674426    2.00763204390638
C         6.41764592156049    3.21436270503427    0.77858742395322
O         6.04606649190829    4.30156319941961   -1.83720849194739
C         4.00351237730825    3.08743596197143   -1.97878294344305
C         3.60907547477890    3.55115495257114   -3.22493037213382
H         4.21107935967491    4.30398735308675   -3.70982288340589
C         2.45373920899715    3.03367480118011   -3.78802950492853
H         2.11108536915073    3.37881936021259   -4.75184664206018
C         1.74266449890448    2.06619391595551   -3.09147477150150
H         0.84089945194848    1.63656719343831   -3.49759322214134
C         2.20272142584211    1.65410619777442   -1.85102931252936
H         1.68716264660839    0.91121975116105   -1.25915764674146
C         1.64918800013065    1.00407239472884    1.81403180330467
C         5.24765284467393    3.58066207809588   -1.29650165542441

