72
CSD_code = NEWQAK | q = 0 | S = 0 | Stoichiometry = C27H43ClTi | MND = 12
Ti        4.01595783455173    1.52593664673774    0.62568184537308
Cl        3.87086516742664    3.52220013861174    1.65732060701351
C         6.19711680668162    0.92425129296266    0.38765423424499
C         6.19680102437269    1.75095504458393    1.53915218955858
C         5.47765321086228    1.06680322049259    2.55595621442434
C         5.10234740477772   -0.20571095956689    2.06680883651761
C         5.51302589766639   -0.28890383758075    0.70767847787465
C         5.65755051739490   -1.55383432050240   -0.09344278078246
H         5.33938224232999   -2.41757301722254    0.48594305368031
H         6.71006335916436   -1.69807470768589   -0.34871625885203
H         5.09976409341242   -1.53675461422034   -1.03108793939849
C         4.73441127771597   -1.36703412510078    2.94255138933730
H         4.18045164860007   -2.13243454982670    2.40701130708827
H         4.15535571466322   -1.05396501760081    3.80749796482636
H         5.65629700403757   -1.82430771297817    3.31423352315038
C         5.34429325662635    1.56642691909672    3.96224959137102
H         6.30460756664552    1.49226521130082    4.47902015649618
H         4.61455918123983    0.98809863678623    4.52579031017583
H         5.04061928985397    2.61374319766209    3.96638175225960
C         7.02156600989591    2.97801571869646    1.79047171358398
H         6.40009189239477    3.86199731220232    1.93886163594512
H         7.71137501034697    3.16377196705215    0.96916694218836
H         7.60940207973705    2.83066981558249    2.69851304092313
C         6.82268550021750    1.19563951811526   -0.94479848470816
H         7.46049319066902    0.35842814473888   -1.24507701346355
H         7.43974774641752    2.09202646029126   -0.89658681594780
C         5.65914367639038    1.39164521808378   -1.92964863544136
H         5.13424839915525    0.42843484189401   -1.99603196294503
C         4.65087546717113    2.35620176077933   -1.26800778558635
H         3.78279301531575    2.41196347707592   -1.93270962858660
C         5.15956026267759    3.79313782803278   -1.13772298951334
H         6.05528309752302    3.86799190892269   -0.52633254283270
H         4.39239739186274    4.42564364936537   -0.69049220595448
H         5.38205330304106    4.22001282295786   -2.11947689078735
C         6.13217744171593    1.67623693888000   -3.39365872094373
C         7.33303097317941    2.62429663523645   -3.48176062031946
H         8.22333036298003    2.16277305919772   -3.06249348695998
H         7.15314070919779    3.56021740932698   -2.96430808001825
H         7.53851208667548    2.85153596720291   -4.52672598321944
C         4.98955038663879    2.23249484674799   -4.25051796309305
H         5.30834638148253    2.29923232426937   -5.28943141250822
H         4.69015537927134    3.22532855821899   -3.92920144655246
H         4.12383166215232    1.57476598634475   -4.20977045364299
C         6.55711982444739    0.33748602529409   -4.01899379523040
H         5.71374536331942   -0.34794660796514   -4.07978976606291
H         7.34336604557507   -0.13671093135664   -3.43699013822107
H         6.93557070357968    0.49580990183423   -5.02695372596863
C         1.64999066710605    1.84960027225592    1.14231349420702
C         1.86888588982529    1.87052893786950   -0.25690381441368
C         2.31572123869721    0.56789074901694   -0.64301108271445
C         2.34800599698490   -0.24598958806836    0.52629685334109
C         1.97921648914605    0.56485505786401    1.63168324171716
C         1.67774569665997    0.13449472992207    3.03689615291722
H         1.91188709223866   -0.91426667950659    3.19792640873109
H         0.61329724755514    0.27597110832360    3.23778221274610
H         2.22971081294853    0.73610296459819    3.76130418956319
C         2.28277009686333   -1.74507162234104    0.47059350180657
H         1.36013823982127   -2.02885762380056   -0.04426450753978
H         2.24701310254662   -2.18204772148601    1.46489392770028
H         3.10850976925020   -2.18810036966578   -0.07984115890608
C         2.30659215071863    0.00169552949039   -2.03458727601093
H         3.04413048861336   -0.79201887679634   -2.15038404952103
H         2.49699710100871    0.76336352129364   -2.78732356814250
H         1.32312803326630   -0.43111938472438   -2.24070122114871
C         1.40760803889676    2.98808351098152   -1.14898428820727
H         0.33963552825387    3.15438328806297   -0.99243520631191
H         1.55737352380479    2.75355868538079   -2.20072292241549
H         1.92796832627820    3.91990900938129   -0.91840656955861
C         0.95214321622232    2.91278164151227    1.93416212803838
H         1.07611817056927    3.89094404402136    1.47520972843654
H         1.33223643868036    2.96218899835046    2.95307406036504
H        -0.11693921701313    2.68413181508743    1.97811250682194

