51
CSD_code = NEWSAM | q = 1 | S = 0 | Stoichiometry = C22H18CoN8S2(1+) | MND = 6
Co        3.29507850058449    6.03871930479626    4.67142316446874
S         2.82145280848363    5.74409068631197    6.91933204288391
S         1.31669970960072    5.01424417357948    4.03751002903355
N         3.97990325481738    4.31164319038880    4.63791491702234
N         1.85298617631230    8.05014411940402    6.01412827376721
N         5.17893887426103    6.51373776707804    5.22811401823831
N         3.29319387390771    3.25060871896591    4.27794443737778
C         2.04438010112568    7.27764217127381    7.05831574921750
C         2.04302998015143    3.45367909222432    3.93179415465401
N         3.47071896515573    6.67166070985424    2.76016192273797
N         1.60975128323314    7.66817484865902    8.25598403370190
H         1.09837963769106    8.53059386611652    8.34192394899518
H         1.67843217484096    7.04728284585884    9.04391903463392
C         2.64353231143461    7.71377371919858    2.58466095378240
C         5.15778595853294    4.16983404049048    5.17223243899581
H         5.58405331766489    3.19017736574929    5.33843896473058
N         1.30181697730170    2.42981070322019    3.50976303281511
H         1.69386502119753    1.50304744366388    3.50206732824834
H         0.32294379023742    2.55977511107712    3.32028263269421
C         5.83182205770741    5.37705773375318    5.51576943805525
C         5.78849208213676    7.70125864013319    5.48453569884266
C         4.11725210207993    6.16016816954741    1.67949059681616
C         5.20300943799448    8.92345531484954    5.10171436870773
H         4.27233739580895    8.91188736064743    4.56313308857059
C         3.85284064914482    6.65111181254623    0.36514343720817
C         7.05776595513671    7.74961667354903    6.13656628632243
C         5.80799944381695   10.11890172928400    5.38499322825436
H         5.33768931695446   11.04053274057173    5.07864780353386
C         7.03320664355274   10.16258103015470    6.06314095606440
H         7.48937046458785   11.11408588055207    6.28558524829542
C         7.69780280820469    6.53534175867658    6.46588055324135
H         8.65397485631121    6.55972922491154    6.96594638094330
C         7.10222619206805    5.35788261222230    6.13197711699160
H         7.56001357961813    4.40520253454166    6.34211981125364
C         2.94217386642251    7.71849247179296    0.21040289285281
H         2.72809849903873    8.09231834525351   -0.77928307425794
C         7.64810060397146    8.99480410566959    6.42231058730055
H         8.60327483802993    9.00425256600778    6.92497447238003
C         2.36404625937162    8.26480785349161    1.31491179032055
H         1.67960505909443    9.09475734701804    1.25126026850328
N         2.35119999062768    7.62648517100436    4.87424057606358
C         2.04245890021297    8.23518511266610    3.76645138902595
H         1.37061586222665    9.08232358743157    3.76025517713308
C         5.08294584985014    5.14437733538486    1.81619113553238
H         5.33811472863495    4.79402211350835    2.80033527326746
C         5.71398771046707    4.61422436263977    0.72255105764481
H         6.45139292809702    3.83788666107746    0.85650143330699
C         4.51054497410705    6.07751110470196   -0.73895841594410
H         4.28517818555380    6.45936921842086   -1.72315646575870
C         5.41960882304670    5.06973706872276   -0.56920347953527
H         5.91990721959084    4.63289248135628   -1.41883970893627

