75
CSD_code = NEXBUO | q = 0 | S = 0 | Stoichiometry = C33H31BN6O3Zn | MND = 5
Zn        7.32417798501836   12.46424793405619   10.24160615570544
N         6.99969105364776   12.57096863572895   12.18509486927809
N         9.30372019969166   12.35737523075623   10.57165728021693
N         7.51673403586594   14.40347480209922    9.90662580386414
N         7.63246686944706   13.58195451589103   12.79358190600773
N         9.71998589483262   13.21920791529790   11.51604677617241
N         8.16320939447735   15.06686926979010   10.87406236075261
O         6.88872141742802   11.01876908956445    9.08974847105798
O         5.29037560116199    9.93908068808030    7.97005870366194
O         5.10131814184924   12.74969697977154    9.98434676691897
B         8.78178164488828   14.30350191338481   12.06051052340921
C         7.08259409584141   13.80049791187660   14.00089239090141
C         6.04739002225919   12.89614714342281   14.16402926236897
H         5.41016892560526   12.78882049765493   15.01801022072044
C         6.03125388293475   12.13620050904304   12.98965655774180
C         7.54753354870408   14.85285475172293   14.94158511248233
H         7.39849593561472   15.84201655288443   14.51162721550997
H         8.60742607077931   14.73568431048739   15.15799631891424
H         6.98694639853284   14.78624357689473   15.86989589574828
C         5.15066874700586   11.05165588504116   12.57680549526136
C         5.64879490016260   10.00113808104621   11.80812948048152
H         6.70444461965051    9.95880200004110   11.57910610391734
C         4.80007319896190    9.01210697113061   11.34704168933113
H         5.19186040597191    8.21267853041480   10.73691328255625
C         3.45048161232102    9.05407269356544   11.65761899405303
H         2.78740543374664    8.28441465644850   11.29109234909894
C         2.95334026417610   10.08218519304137   12.44198727043459
H         1.90202733616760   10.11281082609748   12.69001188500084
C         3.79669160349253   11.07675409179670   12.90098522566419
H         3.40656298296378   11.89136360352050   13.49347232470918
C        10.97443437250256   12.90924992359631   11.89285369534910
C        11.37396326184724   11.80491837326958   11.16377384025005
H        12.32127723792948   11.30744213870256   11.20580851777377
C        10.28873507820295   11.49254454234039   10.33700767071027
C        11.74136541979287   13.65915653518910   12.92180005170460
H        11.23015119671390   13.62405166279794   13.88236390794680
H        11.85166437629267   14.70338093235130   12.63484855372406
H        12.72812574627438   13.21772901880690   13.03184897788541
C        10.17494405154641   10.43178603739468    9.34292016948868
C        10.64966925984602    9.15309089894860    9.62126252220741
H        11.09641059759395    8.94830445530591   10.58381701599436
C        10.52690724834281    8.14645603051059    8.68191265297829
H        10.88862640856916    7.15346287349669    8.90784463432495
C         9.93445769568706    8.40643137808100    7.45724252642356
H         9.83166601574859    7.61578565141779    6.72851058494282
C         9.47509813381034    9.68053943754541    7.16846744604741
H         9.01582587907429    9.88520544476811    6.21306136835229
C         9.59801156658881   10.69004672751120    8.10328985336731
H         9.26315890645554   11.69058390828921    7.87699621047217
C         8.07358416654782   16.39100084202840   10.65274839469491
C         7.32795448936744   16.57854880199793    9.50247135033120
H         7.07926598954340   17.51056693087368    9.03746914639235
C         6.99614147302369   15.29253499851112    9.06233962211324
C         8.69274481004088   17.42263388759568   11.52511802588441
H         9.76595248780645   17.26181884287784   11.60610694712582
H         8.26974445065146   17.38464382387735   12.52729221331797
H         8.51381875871315   18.40877389796541   11.10552245778318
C         6.20093497087090   14.87176779004073    7.91648491697303
C         6.51284635400672   13.69555539116672    7.23800151233745
H         7.38831192857554   13.13179056915739    7.52525140754038
C         5.71693538729623   13.25518928518725    6.19742402927604
H         5.95739441315831   12.33154881135101    5.69277406481360
C         4.60925802493357   13.99290758130845    5.81094157824190
H         3.98503741285737   13.64725860508005    4.99985112361852
C         4.30697261896296   15.17718611000645    6.46356021307708
H         3.44724727000969   15.75680635878282    6.15953214328878
C         5.09570041474548   15.61585244030698    7.51089487462201
H         4.84597596088834   16.52694566274693    8.03423915684361
C         5.70007821575685   10.82187842574058    8.69941259388457
C         4.68882376885033   11.87094874987783    9.24936221922744
C         3.27242863074491   11.74053991593809    8.81785473787873
H         2.60332519372276   12.29236361903417    9.47266082920366
H         3.01076726055256   10.68661575804951    8.76725165521633
H         3.20253959618590   12.14141141423680    7.80609269985593
H         9.35138127615691   15.03965075539377   12.78311519459587

