83
CSD_code = NEXCAV | q = 0 | S = 0 | Stoichiometry = C36H35BN6O4Zn | MND = 5
Zn        6.12486504603412    7.22786448595796    9.67473607504104
N         6.41661151741898    6.06119317893236    8.08393362176217
N         8.16116394741826    7.19401161480867    9.86162993782539
N         5.96528951355593    5.78233308853317   11.00759220191809
N         7.14839567594775    4.96361170873434    8.30669905540526
N         8.63950221320093    5.95285283731380   10.03756506792705
N         6.63724333837990    4.66340193701184   10.71423485120759
O         5.92661142551212    9.08051432816430   10.15788274439315
O         4.11419439145930    7.19833496557392    9.29681700491820
O         4.43239620466886   12.19097875601021   10.16186657744188
O         5.95963092084972   11.33464299856180   11.56019995150340
B         7.78514207062383    4.72818599612812    9.68910192513714
C         7.13685552575222    4.17922476480882    7.21299074725985
C         6.35405084937333    4.80016911660154    6.25705701316316
H         6.14797722836431    4.45185414946959    5.26548729013301
C         5.91847440968747    5.99143734959824    6.85144903414328
C         7.86352020414044    2.88637118096731    7.11133693072929
H         8.92572605046762    3.02818544277690    7.30083358366054
H         7.73432501191766    2.47366972280434    6.11449297732721
H         7.48406323336239    2.17174271327016    7.83956740051479
C         5.05354661813972    7.03250259443328    6.31378352135137
C         5.20885038595496    8.35795251285564    6.71313499298851
H         6.00743343120915    8.61814767343241    7.39258425376667
C         4.35284490939158    9.33664099253154    6.24581509875818
H         4.47418110018734   10.35762551574831    6.57679883880891
C         3.33873989936892    9.00778827822553    5.36084424011326
H         2.66775722919531    9.77234367637221    4.99718272202425
C         3.18877074738390    7.69581415182606    4.94226819894551
H         2.40010868103729    7.43673811833081    4.25040762397213
C         4.03870472373682    6.71320780296833    5.41431742493412
H         3.90562731317727    5.68751298923984    5.10325665499109
C         9.89120581246441    6.00872576050131   10.52930650921975
C        10.22716703551858    7.34152750933197   10.67282319919077
H        11.15655150297249    7.74283542039664   11.02252048992419
C         9.10656289806237    8.05554822250881   10.22985384669353
C        10.71115005729036    4.81012347683823   10.84690205066300
H        10.20430596556003    4.18253319805122   11.57770716192498
H        11.66934518135194    5.12231713725821   11.25323268850962
H        10.88513144261032    4.21447939860199    9.95252781653926
C         8.95778349481977    9.49984590108839   10.09693639325596
C         9.45044668745303   10.35866643712895   11.07452800478572
H         9.91547898477075    9.94802494892621   11.95909159967039
C         8.22875367444913   11.40568243297245    8.82037082091475
H         7.75152222713603   11.81442794576626    7.94104444301853
C         8.72007749810439   12.25433204666113    9.79857671431428
H         8.63101246074667   13.32517542318731    9.68086572731382
C         9.33190437291432   11.72767632417321   10.92383707741955
H         9.71778696817783   12.38883644495934   11.68721612281608
C         8.35356156614533   10.03752138730567    8.96423206140572
H         8.00226442718252    9.37112363137758    8.19105741302146
C         6.10559802429540    3.62335803493893   11.37951103992469
C         5.03941286240203    4.09932736161292   12.12298369543240
H         4.40421468817896    3.53807995201337   12.77777689456770
C         4.98732678313593    5.47164438489970   11.85622653289941
C         6.61793934137721    2.23174857736735   11.27861335918440
H         6.50732663237909    1.85791949146028   10.26213282586539
H         6.06016896896669    1.58682533427052   11.95181030981484
H         7.67352233068945    2.18970018359060   11.53975432275922
C         4.06572195916514    6.49027210814122   12.34214813582316
C         2.70950797144372    6.20878208941019   12.48196921630439
H         2.34511483934556    5.21872402732247   12.25002969656210
C         1.83138241930091    7.19722568026065   12.88507723869933
H         0.77833242747066    6.97398182463300   12.98194338389453
C         2.29643656083344    8.47327623857991   13.15785536526657
H         1.60716038833435    9.24621559906010   13.46538579606645
C         3.64734258496906    8.75419174063474   13.03801947282961
H         4.01588009087008    9.74573695694441   13.25649414522625
C         4.53052184823746    7.76984929215651   12.63624130403030
H         5.58498855688804    7.98732568118287   12.55256116559648
C         5.06071754372714   11.25114604271922   10.58306436301696
C         4.90231621553517    9.81653818120811   10.10181007503030
C         3.63256065249386    9.46623167864262    9.68049115623493
H         2.86937308619958   10.22614086130008    9.66875652835771
C         3.30553030073741    8.14685875280785    9.30839372750478
C         1.87157801429544    7.88079575457201    8.91383393158130
H         1.75185832043212    6.83610265186065    8.64122331923768
H         1.60300620465815    8.51062061715338    8.06894849154722
H         1.21273701153541    8.11977865779278    9.74553279395940
C         6.17155839957778   12.62702463863498   12.10695540748086
H         6.97011553852844   12.52175530406251   12.83630071158011
H         5.25781127972444   12.98969478735031   12.58430086027359
H         6.45793766347410   13.32796312794579   11.32104877878312
H         8.42568441559689    3.73820669594977    9.69920825192916

