79
CSD_code = NEXCUP | q = 0 | S = 0 | Stoichiometry = C36H32BN7O2Zn | MND = 5
Zn        5.00520595621143    3.02548541356496    0.68105942172723
N         5.71549478451345    2.13860276267885    2.33127905935187
N         6.78455809622842    2.73711833547799   -0.24268146728313
N         5.68929067201425    4.85812725820945    1.17150554129747
N         6.84191567546922    2.66875949591634    2.82202670853342
N         7.84560506679832    2.88515828827750    0.56875290448942
N         6.91026613137206    4.88914271104578    1.71866377201155
N         3.13935850177651    3.43926395438407    1.68680355393469
O         3.81237738770026    2.24734542340422   -0.57013714720351
O         1.68795604913620    1.82456801920234   -1.07654456473368
B         7.70089522203924    3.58150397375414    1.92349549925622
H         8.75040403084360    3.79654472653745    2.41527485314710
C         6.99459718739600    2.30703987993861    4.10800006004311
C         5.91024590310319    1.51987425858197    4.45649598106688
H         5.72527693172446    1.05372846180551    5.40280892916496
C         5.12727633402113    1.43766133345482    3.29989483774891
C         8.14371608632016    2.72553334059060    4.95256519541635
H         8.14802793354396    3.80648077300330    5.08457604076082
H         9.08577364203460    2.43943687656995    4.48940306841246
H         8.07111749249465    2.25332371079972    5.92844632485176
C         3.85342846533302    0.76811690298652    3.06883788003804
C         2.86654339149009    0.76773555690078    4.05123604538232
H         3.06414408154019    1.23491687796849    5.00556024526485
C         1.63227826615692    0.20025095851286    3.79608485724281
H         0.86746867462124    0.21352753447010    4.55948208356357
C         1.37205265436106   -0.37526923199751    2.56317212913092
H         0.40329962974476   -0.80825423712264    2.36310518104893
C         2.35604868241687   -0.39683987619831    1.58834784889505
H         2.15648928316964   -0.84197610248162    0.62592465789177
C         3.59241602539078    0.16845759921012    1.83851391322176
H         4.36288514218173    0.14629316287451    1.08180756648076
C         8.93447574371760    2.33250378164077    0.00209520659107
C         8.55458149319593    1.81152714164456   -1.22019141339920
H         9.17739414918828    1.31527436015709   -1.93621545639352
C         7.18878038703676    2.09677194696646   -1.33780087334818
C        10.27811437601598    2.31119831317596    0.63780629446158
H        10.24264582962562    1.78259512511609    1.58884319954724
H        10.63250448777243    3.32296609423462    0.82607172791936
H        10.98256057751992    1.80793302273511   -0.01866137817698
C         6.29338371783215    1.81690937202533   -2.45415119032751
C         5.39703081152311    2.78810159087324   -2.88983650963253
H         5.39306086736743    3.75401989943669   -2.40703938378126
C         4.53838915148505    2.52332512033914   -3.93850559058496
H         3.83707463441357    3.27735564565443   -4.26416411429621
C         4.57068493291563    1.29053532738417   -4.56837702626235
H         3.89222888607156    1.08071751593625   -5.38226187272947
C         5.47291452751909    0.32600039088183   -4.15257663403708
H         5.50052126011283   -0.63609658888410   -4.64414296714758
C         6.33327390645085    0.58649151097039   -3.10234165501704
H         7.02580856104775   -0.17158814397394   -2.76497547637003
C         7.21310001633852    6.14823212855335    2.08477804506052
C         6.13098497800401    6.95155480672586    1.77064433402816
H         6.04621615731354    8.00918361879836    1.91590351929245
C         5.18973966297418    6.09297038903847    1.19073258213487
C         8.50288444073577    6.54465687874777    2.70780281928825
H         9.33610416982711    6.28405319400961    2.05816664180889
H         8.64646145641197    6.03585856596711    3.65929933310492
H         8.51031791304710    7.61783866929402    2.87790878470878
C         3.84452097850498    6.37180003132731    0.70423006890952
C         3.33037400800669    5.67497622496078   -0.38703470313952
H         3.96010079170019    4.97657860919368   -0.91875978773305
C         2.02469375377406    5.87599020400844   -0.79265722978232
H         1.63231435512513    5.31479896288589   -1.62731940298535
C         1.22124627870423    6.78471851117528   -0.12334561441599
H         0.19883633329418    6.93671528912649   -0.43600822798760
C         1.73343457463888    7.50205221926411    0.94537627253327
H         1.11110694665944    8.21703531286101    1.46404694524456
C         3.03667727021467    7.29878858206740    1.35877633377783
H         3.42845955781225    7.84281875983605    2.20603441950192
C         2.56276874301679    2.26826216519816   -0.35543490326989
C         2.15025415194455    2.93574118002274    0.96049315507281
C         0.82191814468370    3.00330912092742    1.35735580352844
H         0.07071534597707    2.57014436176234    0.71636473986135
C         0.52010865138975    3.62218150664633    2.55551984268015
H        -0.50115587680168    3.69540103423307    2.89977778326152
C         1.55824473709441    4.14954657628848    3.31064707292315
H         1.36827736826915    4.64210708279513    4.25143180239807
C         2.85145259118224    4.03191366761640    2.83483123521312
H         3.69050081821237    4.42687277805010    3.39220246782226

