68
CSD_code = NEXCOK | q = 1 | S = 0 | Stoichiometry = C25H34MnN4O4(1+) | MND = 6
C         4.46304887875959    2.17652549618797   -2.24954998669115
C         3.20874221818540    1.84976167509619   -1.44149145649502
H         2.75144664254550    2.76543635447547   -1.05701655549059
H         2.48697560078233    1.38648334018871   -2.13061564601714
N         3.43083300541621    0.96889838377711   -0.28537242762167
H         4.02259501869846    0.18821030243228   -0.58304232887812
C         2.12574143890858    0.42310589737706    0.12091032171495
H         1.45015755243291    1.27330266608050    0.25570784849526
H         1.72271176395395   -0.21037904599910   -0.68309673077497
C         2.16053574684712   -0.38488458992743    1.41356877832025
H         2.91559758184392   -1.17395341125727    1.35114609813597
H         1.18615131006572   -0.85743815205859    1.54414578462520
C         2.44846276491937    0.49128979530148    2.64192289981003
H         1.80970393314822    1.37637299054018    2.61572783625210
H         2.21880507048763   -0.07710469955982    3.55163669906774
N         3.84448733383507    0.88224875650334    2.62651401924575
C         4.62116360407399    0.20374234667360    3.41600563835585
H         4.16662119895529   -0.44620969266069    4.16605772187399
C         6.04057807506696    0.12651419304819    3.32548650139453
C         6.79617206302917   -0.57180529224950    4.28335613489182
H         6.29886776735919   -0.97014845809434    5.15422667928988
C         8.14576154870701   -0.73747051149940    4.11442032095652
H         8.72613817997903   -1.26229018073800    4.85626193253924
C         8.79449339185699   -0.23738949436974    2.98076403179241
H         9.85735761510992   -0.38696014303555    2.88257891670299
C         8.08470003398250    0.42748174268808    2.00524916070237
C         6.67803366128432    0.63086346394716    2.16034059534781
O         6.00825055498332    1.23755147263588    1.22983061960525
O         8.60607515363086    0.97495144204925    0.87036672392683
C         9.98824152042200    0.82384418748596    0.63002371355100
H        10.58344528918569    1.30701897857707    1.40992817089106
H        10.17661924105380    1.31321102343578   -0.32370485461419
H        10.26754562115753   -0.23037028060654    0.55757488845880
Mn        4.46300358372440    2.17655159154057    1.30678966285976
H         4.71229528171507    1.33429889295475   -2.89919420172063
C         5.71733578344826    2.50332524225512   -1.44147404796846
H         6.17464102294578    1.58766456416759   -1.05697730664822
H         6.43910686848658    2.96660695743815   -2.13059138949126
N         5.49520921900240    3.38419938429760   -0.28536988964363
H         4.90344797776460    4.16487943880451   -0.58306183146590
C         6.80028765622158    3.93000681867775    0.12093481667429
H         7.47587878325313    3.07981756396285    0.25574446328734
H         7.20332488432645    4.56349571903356   -0.68306540988062
C         6.76546225607151    4.73799702353657    1.41359239808934
H         6.01039054165889    5.52705531285541    1.35115803279392
H         7.73983781549389    5.21056436859481    1.54418447132983
C         6.47752745736673    3.86181816945384    2.64194166390960
H         7.11628735541147    2.97673478948524    2.61574819624380
H         6.70717682061474    4.43021074712294    3.55165898109761
N         5.08150445300884    3.47085673782006    2.62652019370134
C         4.30481807334401    4.14935755037984    3.41600591756981
H         4.75935060673244    4.79931529258441    4.16605910318258
C         2.88540227852721    4.22656057952572    3.32548592430612
C         2.12979283092645    4.92484613908798    4.28336805705807
H         2.62709113980076    5.32319707235016    5.15423798737552
C         0.78019530874916    5.09046146359957    4.11444875168718
H         0.19980665568133    5.61525216535599    4.85630142463929
C         0.13146987978286    4.59036063188463    2.98079820727649
H        -0.93140230000431    4.73988433886218    2.88262998410975
C         0.84127810727276    3.92552867305449    2.00526762098919
C         2.24795555377008    3.72220404265387    2.16033854436230
O         2.91775340427337    3.11554595504248    1.22981902571570
O         0.31990793692941    3.37803755318274    0.87039350578396
C        -1.06228070417124    3.52903627065565    0.63010324804366
H        -1.65741258697994    3.04581765194640    1.41003262567263
H        -1.25065283024283    3.03965150223850   -0.32361571513512
H        -1.34166948688654    4.58322627100287    0.55766284335201
H         4.21381799132118    3.01872296814291   -2.89923790852454

