80
CSD_code = NEXCID | q = 0 | S = 0 | Stoichiometry = C35H35BN6O2Zn | MND = 5
Zn        6.74752489913344   -2.27444570163305   16.72118269201288
N         7.76208459968431   -1.41558940986615   15.23507152597206
N         5.32042635295130   -2.85628679893009   15.38612731911508
N         5.56220756367610   -0.72228223365011   17.14099609604689
N         7.07358649136281   -0.47939614376912   14.57377626277630
N         5.06859407155810   -1.92255617442360   14.45734205927752
N         5.15140618254830   -0.02407875709884   16.07691770283261
O         7.25175974408659   -3.82892733556352   17.60299103364377
O         8.21711636891645   -1.43756306375148   18.11407356746466
B         5.53468920447083   -0.47559959415446   14.65623480892214
H         5.06573511290511    0.24058856483111   13.84483545565835
C         7.92168355558618    0.35376732802232   13.94544238523173
C         9.20992286889096   -0.06568218968966   14.22690352910687
H        10.12359510213996    0.36722790667178   13.87324205247245
C         9.06082237091996   -1.18989358550584   15.04714425403091
C         7.48386725453642    1.51072853890135   13.12134953560845
H         8.34911558175636    1.97880815921359   12.65979649739736
H         6.97495848938829    2.24805189379712   13.74048142777706
H         6.79475114102299    1.19131508537357   12.34210208839745
C        10.07127419491818   -2.04079855552886   15.66067953223150
C        11.26373527071089   -1.49554935781463   16.13007376816043
H        11.44447732762187   -0.43648381591731   16.01927267692411
C        12.19717558812049   -2.29795596818650   16.75871702073904
H        13.11632541540225   -1.86549203010027   17.12798395721927
C        11.95347134689434   -3.65201525113613   16.92282123416575
H        12.68240111752595   -4.27624586839783   17.41962526006641
C        10.77617262095697   -4.20353453777782   16.44467230763532
H        10.58356266267970   -5.25881792726149   16.56630384224250
C         9.84030610299088   -3.40625298266449   15.81310047644168
H         8.92619170312746   -3.83901627342639   15.43443032553873
C         4.43284495970432   -2.47909059897689   13.40926127108177
C         4.27322968481273   -3.82505181837187   13.68039406813554
H         3.79330111687701   -4.55872548870336   13.06517156573709
C         4.84400995422469   -4.01741801234631   14.94463738694844
C         4.01139635331906   -1.72514905612843   12.19933268674934
H         4.87436219408433   -1.28302777584250   11.70433436869223
H         3.32580481260604   -0.92248400133368   12.46465988808287
H         3.51434805998449   -2.39854179478789   11.50633340842872
C         4.90527134742914   -5.23845423851251   15.73837343451083
C         4.65355624755006   -5.19475418017338   17.10647105704901
H         4.40757979917745   -4.24997543016110   17.56518931289541
C         4.69976005259745   -6.35139263695360   17.86030417927142
H         4.50662639847814   -6.30918359845975   18.92238746660129
C         4.99326750674741   -7.56424676007181   17.25816087107239
H         5.03316178720918   -8.46780986463531   17.84935523017785
C         5.23546091008985   -7.61656501738988   15.89558973149061
H         5.46404977983781   -8.56146035813820   15.42342390779395
C         5.18920801562810   -6.46134475554049   15.13735734000129
H         5.38939583446755   -6.49979721470934   14.07621250083712
C         4.49659575457131    1.08011512380797   16.48218132430286
C         4.50262895517186    1.09014731557560   17.86482322808508
H         4.05524659188044    1.82079227088874   18.50757472747260
C         5.18905009038901   -0.07159908127267   18.24045589502821
C         3.88894198508533    2.07273894170537   15.55729171596455
H         3.15787046649226    1.59386710432385   14.90857082700072
H         4.64922756237236    2.53057622362713   14.92715406736477
H         3.39431133931707    2.85057345818239   16.13280530888648
C         5.52035127388071   -0.56062145020333   19.57178201875854
C         5.60822241905432   -1.92758859501846   19.82456870000587
H         5.37978494929099   -2.63141511692901   19.03819615079017
C         5.98426157017008   -2.38517474793150   21.07302807438541
H         6.06409949818791   -3.44788954183488   21.25008878101820
C         6.26010383530049   -1.48657791866683   22.09072677490131
H         6.55562708331708   -1.84465943094887   23.06641296361016
C         6.15232886069289   -0.12589258587935   21.85456022882968
H         6.36298615462343    0.57791016613397   22.64709120204323
C         5.78612567375540    0.33612159949715   20.60443539286923
H         5.72537031901338    1.39798340646963   20.41657626763918
C         8.68213969025361   -2.36675040342785   18.77394603544246
C         9.74617654656054   -2.09682327013265   19.79969582154262
H         9.94821884661899   -1.02878778030837   19.82822473260961
H        10.65715403984569   -2.62857155780668   19.53517668207614
H         9.41584012326153   -2.42793616442577   20.78085759240842
C         8.18071352583020   -3.72976031381859   18.52319368767342
C         8.67043365243419   -4.79674993721809   19.20364853168463
H         9.43181906324435   -4.65957067133757   19.95372646766409
C         8.20371779825726   -6.18865949735895   18.95255258392405
H         9.04328036580650   -6.83579020327247   18.69451191118137
H         7.48372330652352   -6.18547188746293   18.13912974815199
H         7.73297353745752   -6.60618677425979   19.84427218604437

