59
CSD_code = NEXDAV | q = 0 | S = 0 | Stoichiometry = C28H24Cl2O3PRe | MND = 6
Re        2.55425089430033    0.05872989282059    0.21779307365192
P         4.06396248843558    0.27582378137861   -1.73496152399628
Cl        4.30163495231750   -1.03622346284038    1.23741874338048
Cl        1.44366458796894    0.30749428173993    2.22259829284929
O         3.40224549591749    1.72582702252045    0.67602029433179
O         1.81334678076354   -1.27990215548991   -0.40352008791937
O         1.02063996893645    1.52504801128834   -0.58189975209566
C         3.14985975247995    2.97946037264665    0.76630247332141
C         1.95896384607494    3.52005717957840    0.30577404051995
H         1.75894384232821    4.56610393299066    0.46078012842971
C         0.95517189052193    2.74380000612296   -0.32325000829591
C        -0.29975234558058    3.46878839910821   -0.74425170819577
H        -0.92690815314574    2.80686291280020   -1.33499647280786
H        -0.05359068776306    4.36005714373265   -1.31623329376931
H        -0.84465209441441    3.77159626538463    0.14815111062245
C         4.20207292736066    3.80785076470183    1.38819461968981
C         4.34769438938418    5.16509931180223    1.11201951731023
H         3.67219880009772    5.65533464362954    0.42764849181421
C         5.37722032233378    5.88219829218280    1.69094929804618
H         5.48849274325180    6.93361222324448    1.46942915846882
C         6.26686592947095    5.25827264923379    2.55137346188006
H         7.06672441249688    5.82557139278669    3.00403214838528
C         6.13024645000709    3.90778603271132    2.82716533145560
H         6.82141994901479    3.41803118478000    3.49650784992409
C         5.10894352375483    3.18354363281045    2.24424206313341
H         4.99437368172750    2.12932054037968    2.45156983880768
C         5.24161633120410    1.62214398085256   -1.47662724052455
C         5.01479852549808    2.89506895366199   -1.99161673882276
H         4.17237792506634    3.06861802330649   -2.64816574562409
C         5.86597156469233    3.93346724115359   -1.65757045429807
H         5.69320976428039    4.91993102395531   -2.06203350919673
C         6.92959762531662    3.71298981214040   -0.79820521528545
H         7.58626988263991    4.52834631660181   -0.53462651744178
C         7.13855142656478    2.45277312115095   -0.25974497340791
H         7.95486118322507    2.28777072257692    0.42706755158570
C         6.29588906042661    1.40805410463721   -0.58949864285262
H         6.42868579698993    0.42759801850843   -0.15197387154651
C         3.24483802083066    0.57699917517567   -3.32704068440134
C         3.97130465092311    0.99587879077492   -4.43843398801873
H         5.03275738415300    1.18241738312377   -4.35120726749571
C         3.32941799946793    1.17176858953887   -5.65001672604299
H         3.89064255836628    1.50001444275772   -6.51248946905523
C         1.96960219539794    0.92364025476304   -5.75948252238027
H         1.47312137832191    1.06394553956855   -6.70815919238083
C         1.24963174711981    0.49211847778976   -4.65750861355655
H         0.19250501140218    0.29226154594037   -4.74684973237114
C         1.88375887957648    0.31441924423576   -3.43982611045920
H         1.33449523773747   -0.02337778428544   -2.57033934952498
C         5.04858024367507   -1.20682828483747   -2.08912432342361
C         6.31641740990738   -1.13078226923612   -2.65484287955535
H         6.77113016685959   -0.16883645444925   -2.84743222487092
C         7.00125514763856   -2.29480837768954   -2.95401003500303
H         7.98981660501365   -2.23859158439992   -3.38570824598107
C         6.42481838489130   -3.52819265618970   -2.69803554583075
H         6.96739449834564   -4.43274827472392   -2.92931708156607
C         5.15847512248769   -3.60313552088530   -2.13982526217441
H         4.71311492386326   -4.56449878046521   -1.93499595500082
C         4.46751098606868   -2.44532095360950   -1.83492946742507
H         3.48444801394055   -2.48604807357912   -1.38078705512748

