49
CSD_code = NEXFAY | q = 1 | S = 0 | Stoichiometry = C21H23ClN3Ru(1+) | MND = 9
Ru        3.92383473059973    3.65037351914646    9.05107704575636
Cl        2.83102527037398    4.66039042599598    7.29406461494432
C         1.19653185278758    5.88034231315733   10.12953971552452
H         1.37043284258142    6.87197053797160   10.54045535783552
H         0.23316706933573    5.50908916527453   10.46987162916382
H         1.15562472016703    5.97450364684632    9.04118504714370
C         2.29587868039907    4.94527810998745   10.50250246681225
C         3.61634126387260    5.40792829032610   10.67752873187290
H         3.82043439886274    6.46994521182601   10.59615920735678
C         2.03999156966367    3.57100170642304   10.71297328821321
H         1.02269099697407    3.20583518148055   10.64402791846262
C         4.64221340221446    4.52717938643816   11.06604794672636
H         5.62474088444049    4.92918366374185   11.29034974534457
C         3.05858294989192    2.69887374610044   11.11789840564321
H         2.81294813086213    1.67024190896330   11.36026187252944
C         4.38097070897124    3.15842825590980   11.31405361164221
C         5.45188342732378    2.24016174891234   11.85642583001603
H         5.00785194382599    1.24932035211680   12.00281044453174
C         5.95606623237295    2.74535761754190   13.21136518970905
H         5.12843697688030    2.87322333848609   13.90477402020446
H         6.47525534612190    3.69489343317809   13.11168417462591
H         6.64885879836422    2.02386812234206   13.63493418295836
C         6.60452916637407    2.10199850994599   10.85717893894540
H         6.23889570482538    1.72108608601439    9.90096034988521
H         7.34282038519684    1.40192049854001   11.23827365072555
H         7.09952806489521    3.05718462454624   10.69168572357800
C         7.10488072870580    3.00776103745470    6.44139168506766
H         7.35347580257175    2.15211959105902    5.83678049619868
C         7.83685077968391    4.17439999509673    6.42253287062847
H         8.70893530199710    4.26354752278648    5.79490209543951
C         7.42650600231341    5.24800241185603    7.21267553761428
H         7.96738590401325    6.17966125517549    7.20527470333756
C         6.30389342784878    5.11369444317825    8.00577387710074
H         5.94366897063995    5.93382264885770    8.61420133278939
N         5.60238839185693    3.98608980136400    8.05146680415910
C         5.97517295013089    2.94227560888033    7.26364351012495
N         5.17048878608835    1.85667603764104    7.32836121933355
N         4.15425123302574    2.04223198749581    8.07712205383936
C         3.24301283288423    0.99836179454381    8.19293587960576
C         3.66611302019206   -0.33354378728821    8.19170029153714
H         4.72023703335935   -0.54643283388959    8.10221906804470
C         2.73163092592346   -1.34234090610032    8.31426470642566
H         3.05494368579921   -2.37136345893552    8.32255783504714
C         1.38164943439919   -1.03725519656666    8.41795027092980
H         0.65637135563913   -1.83079038281324    8.50689015063326
C         0.95921614926409    0.28448215444845    8.38731558324461
H        -0.09369177241074    0.51557224247121    8.43292380447747
C         1.88178747923126    1.30632379286231    8.27906832337020
H         1.56489605863558    2.33862483921390    8.18685879092235

