37
CSD_code = NEXFIF | q = 0 | S = 0 | Stoichiometry = C9H20ClN3O3Pt | MND = 4
Pt        6.09903356013429    2.15983647425805    3.30417960555723
Cl        5.54017676360151   -0.05768218929036    3.31307221405236
O         3.97041377105676    3.27317821648719    2.27586581352346
O         7.71239715415546    4.37981530106691    2.00047845169592
O         8.59154149123287    1.78587257250289    5.07048126962733
N         4.90984983509295    2.53111843306633    1.82137953144187
N         6.78547744189077    4.15406815277199    3.03366399139617
N         7.19119427053582    1.82507132806130    5.08584028218109
C         5.02026378118055    2.16045431758002    0.59714398412966
C         3.99611972561890    2.54586341340566   -0.42580286546524
C         6.19027834910258    1.33868658252256    0.15732246064801
C         6.21608061074263    5.19079672033439    3.51046707201884
C         6.50336451845286    6.55898311945851    2.99576266262966
C         5.19388913922030    4.98312983267945    4.56542308830263
C         6.64837906121193    1.49595491685536    6.19177887811706
C         7.45784753388546    1.08713328692650    7.37577098485946
C         5.16597992938235    1.52337055699885    6.30252479546151
H         3.22200153194902    3.13703268374738    0.05787394392138
H         4.45214709566748    3.12877691874544   -1.22589447722460
H         3.54765346522926    1.65594130107801   -0.86521820662314
H         6.77244105021746    1.87352474941364   -0.59497467481175
H         6.82984269593237    1.09052748615648    1.01081039749388
H         5.84612858706270    0.40582663312549   -0.28686817450485
H         7.56753372232981    6.66986160464936    2.79386791852836
H         5.97779559521248    6.69137766417564    2.04936222748273
H         6.17251968105789    7.32256011717115    3.69218018566174
H         4.98589506978950    5.90038574522681    5.10699444077468
H         5.50791536231214    4.20288636037932    5.25673997810955
H         4.28162634183003    4.63800368009212    4.06858619795836
H         8.16517360852078    1.87609726532225    7.63052234239148
H         8.04674434685344    0.20665925613524    7.11930653793592
H         6.82583635435661    0.86769485583123    8.22985781436062
H         4.85988094271558    2.19949288767739    7.10029385148203
H         4.70374972744061    1.82473821227999    5.35765060581053
H         4.81286919095749    0.52350373351587    6.55109138467405
H         7.87173189849578    3.51436873850931    1.59433526294156
H         8.84952679557028    1.86678907108305    4.14053022345545

