57
CSD_code = NEXFEC | q = 1 | S = 0 | Stoichiometry = C23H28ClN4Ru(1+) | MND = 9
Ru        2.36117310337178    3.14991942069045    4.00135616522097
Cl        1.42921687488705    1.44406975583426    5.23766184181076
C         2.34028656104731    5.21866661585157    2.95128268573219
C         3.11996909706489    5.27796702583646    4.12965372335169
H         4.15233751888094    5.60686637991274    4.07509424503425
C         2.52729382783592    5.09890518605156    5.40464707945192
H         3.11921035348955    5.27573573435482    6.29558215520666
C         1.17832974809205    4.75939365043373    5.52623854187648
C         0.39785755781028    4.67801463847785    4.33546075351288
H        -0.66632486059265    4.49230449999886    4.42495251034647
C         0.95203891239501    4.95617892037933    3.09033554799838
H         0.31706188648731    4.99807804131519    2.21271846013922
C         2.90886354467236    5.59182913839077    1.60183468404333
H         2.22741409840053    5.21234668603797    0.83097954200832
C         4.29027289040748    4.98034703664736    1.36077476073293
H         5.04718254335552    5.44921738408017    1.98448981071364
H         4.57858667809221    5.12569560911800    0.32339634501246
H         4.28217278731704    3.90854209177769    1.56488648735422
C         2.96325207843713    7.12018153454570    1.49169274129919
H         1.97362524957312    7.55171578842076    1.62227668014674
H         3.33810814592189    7.40643410429543    0.51314761133781
H         3.62368113376178    7.53640007471135    2.24877081345861
C         0.53605043205659    4.52818549452991    6.85429148293355
H         1.17054057821325    4.87420079089676    7.66620575235090
H         0.35784291577344    3.45884115477825    6.98967904509906
H        -0.42617576182149    5.03391658679327    6.90911834096156
C         5.72485578739146    0.78346132920697    3.34368383669021
H         5.98854960679597    0.14897581643133    2.51483606440625
C         6.51600491704381    0.91688602452031    4.46107132390175
H         7.45145360325077    0.38608732336518    4.53638082839426
C         6.08632234807821    1.73425045878712    5.50772416002266
H         6.67387682865071    1.84185902417937    6.40403747550294
C         4.88505481704169    2.40229206103273    5.38983094150958
H         4.50796260089964    3.02770392274130    6.18936497766028
N         4.12193274801186    2.30125464197885    4.30629284259707
C         4.51083268335437    1.48137559370631    3.29343491533038
N         3.64346834780362    1.36969066934852    2.26874866060588
N         2.54995338362788    2.01849956463831    2.45907470043342
C         1.58169390666198    1.92094461284641    1.49927766532032
C         1.89055003658550    1.58718294546323    0.16734982577341
H         2.92654467641792    1.43971568853536   -0.09465108941724
C         0.90543667389520    1.47745071313296   -0.77271172934460
H         1.18658598767837    1.25227565583007   -1.78701476283042
C        -0.45879282388352    1.66110906358185   -0.43832819239187
C        -0.75747738354908    1.96505806137349    0.91225480669723
H        -1.78239302901122    2.05146704160832    1.23049358128419
C         0.23118854158957    2.09605833379440    1.84853083523134
H        -0.02546446931845    2.24587125697855    2.89081313496359
N        -1.43024970069001    1.53837099557809   -1.36379738357282
C        -2.80535164958549    1.84648440491140   -1.04832623136796
H        -3.24918592234161    1.08115034184875   -0.40506239953218
H        -3.38421761212955    1.89874541360703   -1.96657566030853
H        -2.87955359857279    2.81395138017951   -0.54965990658643
C        -1.13571125151127    1.04118520679679   -2.68819094816372
H        -0.58707323958869    1.78135391663194   -3.27727258991820
H        -2.06428536936832    0.81437567215110   -3.20475935441713
H        -0.54707934015252    0.12395952105139   -2.63547813561459

