42
CSD_code = NEXFIH | q = 0 | S = 0 | Stoichiometry = C16H17MoN3O5 | MND = 6
C         1.35904515534170    7.12124155522168    2.77824281838636
H         0.52080112428833    7.78556973984449    2.92784167353824
C         3.63516448757691    6.77627133385589    2.02739249685701
C         8.13256462672014    5.28300891897157    0.56980150887755
H         7.20682204747983    5.66851157319061    0.14869407671460
H         8.85784187061636    5.13779415946216   -0.22500240843793
H         8.51957258920284    6.01818405824560    1.27493083849894
O         4.91435335213167    0.69228481339429    2.74565822320074
O         6.44926969463739    2.47323140697622    4.32391426064338
O         4.44525759495398    3.24566672951804    2.68658736336775
C         8.59762842639665    1.67986908635234    1.82673437447507
C         9.63436531586157    0.74671302254520    1.96813495740992
H         9.36503477800729   -0.25537117775280    2.27130494347356
C        10.94348935599118    1.10910399019966    1.74518376070383
H        11.73228441367945    0.38245895062759    1.86769395553823
C        11.25034830837451    2.41266621230231    1.36722086478081
H        12.27761116442414    2.69945431770173    1.20340607931840
C        10.24577300046808    3.33946585855584    1.20722844503426
H        10.50756861115109    4.35009989012345    0.93657364109189
C         8.89951786167794    3.00732108916051    1.42803943984924
C         7.84820539085218    3.98963651525351    1.27740085363238
C         4.62270255760774    4.46066796647381    2.26080620933961
C         3.52878469535328    5.41534280765392    2.39441634680325
C         2.33141283178137    4.94628641661426    2.95130679956254
H         2.28422000055544    3.90421007894825    3.23796489306159
C         1.25518804684630    5.78060273328758    3.14015261342543
H         0.34082626290720    5.40362784334850    3.57020976084002
C         2.52544378306601    7.60813242007744    2.23681791074740
H         2.60467377300986    8.65055423324392    1.96269820281904
O         7.35539848777774    1.30145896005297    2.03768354733071
Mo        5.88533724278034    2.02244761267166    2.84388266634086
N         6.66754661093638    3.76903957450916    1.78056646590926
N         5.76496182715149    4.79042185738401    1.71418773686169
N         4.75816461790869    7.26771286947186    1.44618676910800
H         4.88175928928593    8.26500182407561    1.41531541632276
H         5.56680184514674    6.66117790629816    1.47351421819586
O         5.11148679669167    1.73738415960260    0.27702669339111
H         4.90664475688997    0.90572470264067    0.73908886332884
C         3.88295845361956    2.28335269710021   -0.17680577086749
H         3.46114623635486    1.65507474150624   -0.96842750715852
H         4.09513526884554    3.27314258251190   -0.58286674587736
H         3.15878744566087    2.37455396877239    0.63869274355185

