50
CSD_code = NEXHUU | q = 0 | S = 0 | Stoichiometry = C24H19N3O3Pt | MND = 4
C         3.07062065509926    8.05665409062979   10.30256549573400
H         3.01725958088111    8.13193964808337   11.38049954360287
C         2.28364090088962    8.85001519287313    9.49000556096093
H         1.59889804522204    9.55917275544522    9.92623056267775
C         2.39489814162544    8.71310747345568    8.11208904976268
H         1.79539599271933    9.31713386209793    7.44842516291677
C         3.28758733272888    7.78800171956037    7.60575031171144
H         3.39529149846230    7.65943873171957    6.54115031198434
C         4.05406448545386    7.01302975609455    8.47384452880335
C         5.01973066303080    5.99774369174725    8.08582526016153
C         5.33487242423166    5.64852621018591    6.77081795337968
H         4.86057030220085    6.14866329751236    5.93970863230780
C         6.25759692173625    4.65701302987651    6.52580182176344
H         6.51976020604274    4.36487334005389    5.52165358093183
C         6.87308721881688    4.00273011433443    7.59713625775671
C         6.56546333381550    4.35577968482549    8.91169169458631
H         7.05489031753563    3.84288982620933    9.72674228163085
C         5.64152508196619    5.35321533579786    9.18067886472968
C         7.82571420900371    2.95449577111548    7.32548848499011
C         9.20769741016350    1.38690002819032    7.65298520500488
C        10.03043585728303    0.42222600512257    8.34408549091857
C        10.02348513495671    0.35245396228094    9.73612437718170
H         9.39941312800492    1.02912899948738   10.30013653593895
C        10.81215736402622   -0.58131808430368   10.38056254157602
H        10.80594708467676   -0.63561390273663   11.45920581521455
C        11.60795564928003   -1.44612558415074    9.64665452093948
H        12.22189632347708   -2.17477268630315   10.15521993113709
C        11.61689166779879   -1.37702786723252    8.26150744507681
H        12.23833522171876   -2.05178265825704    7.69218855639227
C        10.83282128970970   -0.44808622274242    7.60670040250924
H        10.82195732731877   -0.37553867115618    6.53096745774626
C         4.09827317626693    7.22397665703378   15.12188173275847
H         3.37307180992393    7.95673140873419   14.77706975954573
H         4.87060335211729    7.72707550708313   15.69987552737173
H         3.60283276596307    6.50418631585662   15.76995760169336
C         4.72155163105576    6.51279526197109   13.93860850465079
C         5.67197343331222    5.52764270747826   14.22632239175135
H         5.89539183812362    5.34282068369855   15.26592774746888
C         6.35506766979119    4.76610376957171   13.28115498479388
C         7.34788052387140    3.75093570860770   13.80886641703977
H         7.82911036086158    3.24460090524613   12.97661241119359
H         6.83644797784888    3.01807271753818   14.42917252220465
H         8.10262960300743    4.24538173125036   14.41627804698573
N         3.93184386892932    7.16248546092495    9.81926001254589
N         8.23155087524577    2.54155137310890    6.15738094943304
N         9.10554511389464    1.55101912117279    6.36475578760421
O         4.33724841516848    6.85959666095348   12.79301269962778
O         6.24863032562018    4.81967254284142   12.01898569987129
O         8.41549184165080    2.25481056023058    8.32331120053046
Pt        5.05019464747683    6.03227405688503   10.95062236290300

