57
CSD_code = NEXJEG | q = 0 | S = 0 | Stoichiometry = C28H24N2O2Pt | MND = 4
C        12.83649748093218   11.34182645982601    3.21471876600238
C        12.76166107420553   10.54992082913005    4.36103522239421
H        11.97890178385818    9.81036183192186    4.44293172150927
C        13.68512603308389   10.70534653414509    5.37593237771238
H        13.61750913394926   10.08301443017308    6.25627015589971
C        14.70045339611214   11.64134609766140    5.26487066895925
H        15.42377029744020   11.75598969354656    6.05794553007576
C        14.78123176767867   12.42819196940254    4.12753583902174
H        15.56653491086336   13.16406984357969    4.03433997319252
C        13.85713604745533   12.28706453099714    3.11072679270452
H        13.91720513247796   12.90901878772143    2.22961019623273
C        12.29919227238562   11.30689865839648    0.84900370887518
C        13.55228752666834   10.85836232577480    0.43343820193639
H        14.21901170100838   10.40200373066124    1.15041710432668
C        13.93538094925899   10.99068386320227   -0.88736604500930
H        14.90818579960878   10.63724803319773   -1.19683584827277
C        13.07807146352139   11.56108448329460   -1.81369881819389
H        13.38026298884803   11.65954970324612   -2.84543617870130
C        11.82966647424478   12.00312723442268   -1.40660940395914
H        11.15535838719764   12.45200115236556   -2.12092166721461
C        11.44066355524242   11.88346538363671   -0.08722116422669
H        10.46945796204769   12.23350839363546    0.22866927799857
C        10.57491045722117   10.87270207361089    2.48600937235566
C         9.86130597794502    9.98537727652049    1.67694464680722
H        10.35664268535005    9.53201048297776    0.83055387631677
C         8.54305411970356    9.67096183883889    1.94740470667718
C         7.91917337905948   10.27570558663943    3.06557335744851
C         8.63291694358360   11.15641137393588    3.87947322956131
H         8.16205997754000   11.62328668825322    4.73225724714881
C         9.94739649757055   11.44999353361616    3.59510706059735
H        10.49956665265188   12.13779334871967    4.21882421055204
C         6.53369938362179    9.89415484182720    3.24372753078660
C         5.67789749693775   10.34875717803050    4.24773231810892
H         6.04546932177771   11.04538761171787    4.98359138836835
C         4.37093400305332    9.90736809481992    4.29318968762124
H         3.70103386011393   10.25329383057469    5.06574649760759
C         3.93220966191425    9.01003518336593    3.32625963484249
H         2.91902407998783    8.64207417416403    3.32638592792107
C         4.82262822670042    8.59226403052048    2.35625667064414
H         4.52392808198305    7.89370788126436    1.58595190986639
C         9.91635057066370    6.76438603266384   -2.11344980861623
H        10.69720952860567    7.45123421724505   -1.79740094186539
H         9.71492630737467    6.90455452861201   -3.17262186263514
H        10.25721749108512    5.74195245641243   -1.96254400464227
C         8.66226123832302    7.01110967411510   -1.29921256664900
C         7.52792165935933    6.28357222267188   -1.65247376786707
H         7.61565833291164    5.60234676751537   -2.48511900278736
C         6.28553530941877    6.35973711993094   -1.01386766814828
C         5.18326415876000    5.47669327357711   -1.56438597658732
H         4.26143807658143    5.64507861591771   -1.01315233672440
H         5.46858882031874    4.43048830222567   -1.47446291729875
H         5.01967184007323    5.69595758186647   -2.61719833035593
N        11.90269428759679   11.18489327418514    2.18620870633417
N         6.08498569091548    9.01386200922967    2.30760120806159
O         8.77762219595541    7.86022596957326   -0.36628936058442
O         6.00015226806160    7.08513202974770   -0.02854430315209
Pt        7.36578527918316    8.41920692518740    0.95696724904445

