88
CSD_code = NEXKIL | q = 0 | S = 0 | Stoichiometry = C36H39F3IrN9 | MND = 6
Ir        8.11560269532362    4.68555407931787    4.59577462487023
N         6.90916982029644    6.10071724548728    3.51171857115048
C         6.07083267954083    6.23011466060206    2.46247312600777
N         5.60398708832305    7.45230386646551    2.35258980075824
N         6.15984037043195    8.13487563142825    3.36939080540218
C         6.95946063518071    7.31343496020112    4.07661766279878
C         7.80967383363228    7.53072525909044    5.22250540374243
C         7.99040820901332    8.76675784327208    5.84317437314111
C         8.85011121973144    8.88611108110617    6.91543817991617
C         9.51402914024572    7.75062400916178    7.34843968321485
C         9.34343009187802    6.51683040866540    6.75331020148138
C         8.48480518048559    6.36160027350750    5.66500717293331
C         5.69382314682903    5.12269574043529    1.54877993901023
C         4.41290470267653    4.43415442552241    2.03390637379108
C         4.04848186048249    3.25457754085151    1.14213664930857
C         5.83204945671474    9.52110257603302    3.52660814901560
F        10.36725586597271    7.86265678501850    8.39357452167732
H         7.47087706059185    9.64555861851146    5.49783092955001
H         9.00852615524150    9.83039552504388    7.41114278569345
H         9.88469903156645    5.67310294847408    7.15336697743285
H         6.50783479138844    4.39686598166660    1.51485675023828
H         5.53251064262660    5.52723010726487    0.54792711249570
H         4.55796756674465    4.09563957270529    3.06267732037381
H         3.59971687573005    5.16265895795478    2.03541591062980
H         3.14368455023414    2.77001791805702    1.50232385193964
H         4.85204968370035    2.52105852361614    1.12360488710989
H         3.87282242639702    3.58919667876669    0.12209569195808
H         5.10668025872955    9.76217542892450    2.75119861274512
H         6.71715004140282   10.14640978575871    3.39717781404517
H         5.38825256600584    9.70405401008414    4.50617347265786
N         7.49315187597206    2.93318632374156    3.51171050918561
N         9.94437364293596    5.02263883830901    3.51165404816138
C         7.80025085836468    2.14244019228994    2.46247697845020
C        10.47562183154888    5.68396644776033    2.46241933711320
N         6.97517926227992    1.12708447086718    2.35257416756895
N        11.76747206384084    5.47708051598766    2.35248760894197
N         6.10612519208527    1.26720889389360    3.36936626113779
N        12.08065542939900    4.65442465104098    3.36930405307429
C         6.41774069414392    2.37040918895042    4.07659554620726
C        10.96945562942794    4.37270689148655    4.07655259617115
C         5.80447000048812    2.99808000724092    5.22247731048554
C        10.73251930903015    3.52777959057573    5.22245500959279
C         4.64364763672430    2.53661864191957    5.84313658383432
C        11.71258089116088    2.75323251097827    5.84312281548165
C         4.11048017918629    3.22144987002055    6.91543195903189
C        11.38609363452874    1.94905740901341    6.91540516195922
C         4.76195552543939    4.36410402169293    7.34847834639856
C        10.07078205871299    1.94187044448044    7.34843139782193
C         5.91575718433254    4.83323683796907    6.75333444862358
C         9.08759294460214    2.70652746878649    6.75330819167294
C         6.47944646785012    4.16729432982014    5.66497673635261
C         9.38246485520668    3.52769613219310    5.66497107345865
C         9.70509624826309    6.56424861706006    1.54877624004643
C         8.94785322600248    2.36957598496216    1.54882189308219
C         9.74924005750290    8.01778581714268    2.03402643140571
C        10.18455702472606    1.60449929491205    2.03402151748850
C         8.90990370561797    8.92323752295150    1.14232298483257
C        11.38834091937531    1.87857753630157    1.14225543986581
C        13.44503197659641    4.24508484294540    3.52647363929626
C         5.06945255327877    0.29027895293627    3.52655364219677
F         9.74120006616306    1.14698321687124    8.39360347657048
F         4.23835597588927    5.04699512953399    8.39363747445213
H        12.73340395360243    2.76371868217615    5.49775998124997
H         4.14230272050331    1.64732560354011    5.49777150058297
H        12.12465484389313    1.33970436361911    7.41109478848993
H         3.21347744410735    2.88653210848787    7.41112227070195
H         8.08628518335945    2.65970253522378    7.15341184508565
H         6.37586033664912    5.72381443993221    7.15342284036859
H         8.66950482226053    6.22221351513815    1.51480635526219
H         9.16947116713106    3.43743642426307    1.51487083529371
H        10.13610734882363    6.50176016895531    0.54792657937652
H         8.67819334404797    2.02758806184889    0.54796995322809
H         9.38354369889831    8.06132207490904    3.06280091632462
H        10.40517920059501    1.89943018282386    3.06278206595654
H        10.78673669536332    8.35777633842441    2.03556498148729
H         9.96019584416496    0.53601588002378    2.03558270326825
H         8.94266514132192    9.94906187555048    1.50260025264603
H        12.26034107897395    1.33725857974802    1.50250162786710
H         7.87287146348577    8.59409373581407    1.12376713793884
H        11.62185993992554    2.94123381873422    1.12366684824892
H         9.28751798311348    8.90814647745472    0.12227835232677
H        11.18640073381498    1.55908836636302    0.12222699225960
H        14.01650861118532    4.75270905462231    2.75105844398214
H         5.22335333900063   -0.45847082569678    2.75116673262405
H        13.54391598106277    3.16590652707787    3.39701131602710
H         4.08540221570080    0.74419871874789    3.39706796757552
H        13.82542430101247    4.53789157772883    4.50603486247689
H         5.13283604020446   -0.18551932313649    4.50613161430359

