88
CSD_code = NEXKEH | q = 0 | S = 0 | Stoichiometry = C36H42IrN9 | MND = 6
Ir        4.75044557780608    1.34199107511937    7.79154104654604
N         3.59492247818725    1.84642337695512    9.55489631609690
C         2.33787986062335    2.00107237669986   10.01862388541561
N         2.30742135692163    2.16737272615160   11.32073890787001
N         3.59500742075175    2.11302695900829   11.71089841749115
C         4.38323249739129    1.91575257232104   10.63472498164191
C         5.81226013239598    1.79169351992706   10.48348412986086
C         6.72963940717356    1.95891607887426   11.52173992388297
C         8.08078493499918    1.84395483577060   11.27118559701859
C         8.51692460060962    1.56023480682880    9.98519836393867
C         7.60720579262058    1.39186802286101    8.95713168636209
C         6.22928384574142    1.50062592426161    9.15872526232800
C         1.12622396089687    1.95769189703427    9.16229632933005
C         0.44955132620187    0.58543319210940    9.24753627573401
C        -0.74096754102604    0.49912304104703    8.30160583668218
C         3.89457112007332    2.23525648858973   13.10691181697498
N         5.17697168867903    3.35252554109791    7.12157246803042
C         4.96311649042629    4.65732333743791    7.38551902794287
N         5.55493046583378    5.44173983801700    6.51321916332868
N         6.17992867161294    4.60990456207742    5.65949953792644
C         5.95113579041279    3.33310677140321    6.02888939553806
C         6.38465923591089    2.07170295467050    5.47881722495365
C         7.15062259170739    1.94031409370955    4.31984115788810
C         7.52356584902793    0.68725578343888    3.88040738799919
C         7.13571394274012   -0.43439723165938    4.59868614035818
C         6.37077849740049   -0.30380054968642    5.74357509889019
C         5.96156257128468    0.94160492337374    6.22522043894670
C         4.16315941319020    5.17478874162522    8.52660915935237
C         5.00878600234222    6.07824907003496    9.42956036587111
C         6.10049672513959    5.29802036079764   10.14929292212404
C         6.94201191190561    5.17767499730069    4.58680743385417
N         3.08367588828982    0.98286868657685    6.43842178645916
C         2.37874632977311    1.50030024847125    5.41052223711210
N         1.51087653342147    0.64393892348074    4.92405295837848
N         1.66873357561681   -0.47212055554660    5.65987137365499
C         2.63206459725557   -0.26842393883726    6.58083586121087
C         3.21813980467700   -1.13903065771231    7.57126798683197
C         2.74257028477392   -2.41739835187974    7.86798377943712
C         3.38223567803959   -3.18696958530223    8.81702113436709
C         4.50062034532622   -2.68367252926493    9.46513768241313
C         4.96306030323043   -1.41181119807155    9.17981458738331
C         4.34266482058488   -0.58781236710992    8.23741608407020
C         2.54245742245547    2.87621551381431    4.87574456103140
C         1.87395674058708    3.91526957589010    5.78110685018912
C         2.07158046300874    5.32913509974265    5.25126935976703
C         0.87597903055843   -1.62200488405779    5.33937570793813
H         6.40078161535514    2.18792042075443   12.52346859341419
H         8.79243078223988    1.97523838926342   12.07352622978957
H         9.57634633849597    1.46923863745246    9.78800979323899
H         7.97809466916361    1.16295704999252    7.96783546771164
H         0.42634617130015    2.73026863953822    9.48706799388474
H         1.42223751591416    2.15358516833382    8.13147279194689
H         0.12216565177141    0.41517175705161   10.27498305449408
H         1.18032926258149   -0.18754270454249    8.99816848243448
H        -1.20331955622122   -0.48403593061990    8.35835324035280
H        -1.49002197660610    1.24403147032636    8.56198540248214
H        -0.42969682953859    0.67779332076527    7.27405473978174
H         2.94084423720136    2.28234583944210   13.63016069016983
H         4.45846902085042    3.14861786032962   13.30805961367674
H         4.45869309775750    1.36939217051772   13.45625243793084
H         7.45525955195421    2.80574201054900    3.75236634224506
H         8.11574450083384    0.58394379670448    2.98246172872836
H         7.43314439090654   -1.41662735098421    4.25768109507446
H         6.08624794780208   -1.19572303459124    6.28390957648490
H         3.77507693977832    4.32803983328638    9.09275473267429
H         3.32187925222550    5.75197439220856    8.13427470458523
H         4.35624828678060    6.55619658672409   10.16398320380195
H         5.45722180166869    6.85905746647084    8.81301776956792
H         6.72297126007860    5.96546479661129   10.74101555895252
H         5.66541610292649    4.55438373296371   10.81290197167288
H         6.73541523834035    4.77517798842417    9.43742849341699
H         6.88999826964104    6.25919027120692    4.70320883267792
H         7.98364452723599    4.85752478234833    4.64102127301972
H         6.52064059674834    4.89998091819843    3.61853864901820
H         1.86797050888690   -2.81324553039375    7.37599138166980
H         3.01300848726139   -4.17544440743653    9.04987877609204
H         5.00964263869476   -3.28971138432882   10.20216675472241
H         5.83667924216684   -1.04893228416349    9.70285727624912
H         3.60893573202692    3.09432865193751    4.79284206440527
H         2.09587782471732    2.90919083489954    3.88064319903304
H         2.30086452453587    3.84021648242937    6.78267405945124
H         0.80594862436219    3.69301198698002    5.84850003419335
H         1.54404476408312    6.04655548498392    5.87613459523002
H         3.12698917154746    5.59400693885056    5.24683575610889
H         1.68975854099418    5.41395432793118    4.23595382681056
H         0.30128498830106   -1.36926276541911    4.44963697252228
H         0.18860457900686   -1.86182944973916    6.15302057778790
H         1.51359326965333   -2.48158123264564    5.12820461206511

