41
CSD_code = NEXKUX | q = 0 | S = 0 | Stoichiometry = C15H19NO5Zn | MND = 5
Zn        2.66402607640283    8.44203719044254    3.00729619910368
O         1.99006195429355    6.74709097136590    2.48558085560705
O         3.73793383439929    7.67887215293783    4.47306735666874
C         2.19019654389438    4.46501123893185    1.86630769328329
H         1.37323783406096    4.74447380589806    1.20666330589389
H         1.87174249115943    3.65415598999205    2.51751521048806
H         3.02933499187041    4.11374407814188    1.27019451571975
C         2.61137728356528    5.66447835964135    2.69288344875634
C         3.63027912520819    5.47680615508887    3.62056660589400
H         4.07178442017440    4.49493083587697    3.69563746000996
C         4.14591264624335    6.49142790585322    4.43389293169308
C         5.28209455003112    6.11153872724551    5.36326015397493
H         5.56088519640470    6.96728506093250    5.97166252736085
H         6.14134999318739    5.79253064243154    4.77783530153348
H         4.98240894252263    5.28723529625125    6.00638380488534
O         1.67089001666192    9.61099746708349    1.75573671777861
O         4.27019936613693    8.71499770371402    1.95693315033185
C         1.04391721547606   10.72463433768131   -0.24551433500144
H         0.84838602589844   10.12242123099074   -1.13052511412635
H         1.42505952487614   11.69037737123127   -0.56766269048026
H         0.11677337744663   10.86273832799922    0.30419289431154
C         2.06322017889547   10.02129186504251    0.63047168955497
C         3.35398192966685    9.88451275213082    0.12393807582567
H         3.56832024175330   10.28440311256276   -0.85465655304696
C         4.37618205263909    9.23315335792469    0.81365886701326
C         5.72660399349407    9.13803959668010    0.13150220979430
H         6.10037370709262   10.13488289802182   -0.09135137436193
H         5.63164804544451    8.59233222218369   -0.80469630947211
H         6.42927836779165    8.62338921928641    0.78077589637628
O        -2.21988755229543    9.38521410583275    4.80426471578142
H        -2.33979724490365    8.93836110428797    3.95625408259223
N         1.37803715731874    9.19992117494089    4.46321360409495
C         1.75672505643455    9.78847136128420    5.58789536609398
H         2.82092785309640    9.85643070909738    5.74940509743285
C         0.84299898371174   10.27780837127555    6.50949214521210
H         1.18631196700078   10.75445572318974    7.41401406263742
C        -0.50933400101009   10.15021132729787    6.25493574199237
H        -1.25924302997073   10.51696591306963    6.93822896067078
C        -0.90353669775898    9.52492930429390    5.07312480422092
C         0.08686889121058    9.06539305793185    4.20792970588787
H        -0.16033130952401    8.57974797392625    3.27479121801296

