63
CSD_code = NEXLEJ | q = 0 | S = 0 | Stoichiometry = C24H22FeN12O2S2 | MND = 6
Fe        2.09223517965046   -0.00015712347804    6.24686037746218
N         4.58223791396007    1.60651740867572    2.57926233747379
N         5.01106055521660   -1.96392786935542    2.11345149733040
N         5.67400402490748   -2.56366621339118    1.14896487973481
N         5.68503736123092   -0.38538235255469    0.74787975992051
N         3.04484623129943    0.66002864877361    4.72657686972944
C         4.01353183913619    2.42183611855100    3.45500075935796
H         4.17476262962717    3.47799359237696    3.29187968014432
C         3.26896213564847    1.97058693238589    4.52868418105204
H         2.85621509084511    2.64998494640929    5.25559309369425
C         3.58281221987261   -0.16300549244548    3.82949708856424
H         3.37381151965412   -1.21835249276089    3.90680024623459
C         4.37433917811020    0.29972553341176    2.77637416030274
C         4.99639883951385   -0.65868163699491    1.90126151288591
C         6.09299484435323   -1.63688495843143    0.30053877488728
C         6.83276375407265   -1.73288343275589   -0.88881685687427
H         7.14227008401773   -2.70734230146454   -1.22591167662939
C         7.12347662404948   -0.58330139553489   -1.56373124162677
H         7.68927662269768   -0.61838320475496   -2.48135666622801
C         6.68974583026156    0.67098057633275   -1.07277592364869
H         6.92955223884049    1.56929183715925   -1.61740760010016
C         5.97442874497012    0.75626394142013    0.08025548423585
H         5.61478570696420    1.67249708149176    0.52085937036799
N         3.11807588390847    1.12571495143751    7.36980006716365
C         4.08313460885349    1.47878939152567    7.94407117713272
S         5.34937612585031    2.01216118426668    8.72666173290912
O         0.61411024289814    1.71425762744542    6.01291591383665
H         0.77689735245224    2.38433928499991    6.69040391713563
C        -0.79147191296965    1.58106597378175    5.85544630064240
H        -0.95800027988288    0.78092453123165    5.13789530909403
H        -1.21386223263180    2.51137964257714    5.46614178604660
H        -1.27819626314849    1.32626942175479    6.80037142945027
N        -0.39827473634720   -1.60665468277904    9.91429481260525
N        -0.82701125026955    1.96380210264449   10.37999003044252
N        -1.48995273144323    2.56362730097293   11.34442545622165
N        -1.50103865415319    0.38536847333924   11.74566935386649
N         1.13862373800146   -0.66009734977842    7.76663115539379
C         0.17040630003745   -2.42195149756569    9.03852077713378
H         0.00892979121326   -3.47810524030027    9.20144636626356
C         0.91469641837598   -1.97067487598586    7.96465575479734
H         1.32733271485350   -2.65006937818589    7.23767987131264
C         0.60106934914522    0.16288882813188    8.66400555144228
H         0.81034606856788    1.21819476371511    8.58691105299847
C        -0.19027923601454   -0.29986216771870    9.71724706235052
C        -0.81232832514369    0.65857844897930   10.59231945406924
C        -1.90901867689818    1.63691274818870   12.19288403195209
C        -2.64885698921014    1.73302301237082   13.38218193130869
H        -2.95836283788436    2.70751967326203   13.71916634492134
C        -2.93962652140507    0.58350133813192   14.05717431790270
H        -3.50548576218411    0.61866596736557   14.97475842887216
C        -2.50586379647062   -0.67082496027732   13.56635939114086
H        -2.74572641684709   -1.56908654204025   14.11104781100623
C        -1.79047486624876   -0.75621484576517   12.41337963037785
H        -1.43083472666374   -1.67249728283628   11.97287295169493
N         1.06598164556983   -1.12565350398107    5.12387384907202
C         0.10075688151886   -1.47847293567597    4.54965810742234
S        -1.16481216957984   -2.01189538185930    3.76607124961525
O         3.57005801272656   -1.71451857379720    6.48099937060325
H         3.40720458474423   -2.38490727492961    5.80385197530360
C         4.97564258342551   -1.58101881193525    6.63815754526581
H         5.14218056775032   -0.78018009240713    7.35492623368724
H         5.39807406435351   -2.51093368773572    7.02836135499019
H         5.46223228224004   -1.32710372362454    5.69293103429228

