42
CSD_code = NEXNEJ | q = 0 | S = 0 | Stoichiometry = C19H16CrO6 | MND = 6
Cr        4.65471159270048    2.39684374099926   12.73613512383891
C         3.09471080203163    3.04710458977517   13.54960515815197
O         2.16735049710642    3.37092267266693   14.14120710988805
C         6.19697844639879    1.58426658099755   12.07262580010310
O         7.11849435430478    0.96892947329863   11.76909632640765
C         3.83622236927690    0.86876147033363   12.03346587991405
O         3.47234974337746   -0.09592535928949   11.52964725045221
C         5.60102551145207    3.96218757904651   13.12819981777861
O         6.19159530945666    4.94556498506731   13.19248678129501
C         5.01329509119099    1.50710296045328   14.34495251289857
O         5.23938262999933    0.94173470103565   15.31965747325132
C         4.29306675074146    3.41185421199514   11.06300930115739
O         3.46813366479410    4.42507871353861   11.09792083845831
C         3.21196483980309    5.22872989516745    9.94081451410097
H         2.77825348041285    6.15822329968577   10.30463421548428
H         2.50135929852974    4.71911505392840    9.28697517768425
H         4.13333636304638    5.43175110708650    9.39129675563929
C         4.89112576179706    3.03609386897599    9.77198980066762
C         6.23335066655373    3.24212301603758    9.47310835074771
H         6.85771727112704    3.77088381449277   10.18094129457478
C         6.76010865397019    2.78484199245385    8.27786770879090
H         7.80137778616252    2.95782446520701    8.05205394620345
C         5.95922637272860    2.09951342332474    7.37654740723610
H         6.37916522244852    1.73529245269947    6.45109136133391
C         4.62531887978357    1.87503760608317    7.66163343908740
H         3.99525599810516    1.33515695002521    6.97024617221793
C         4.07911611648931    2.34545413405783    8.85110155427840
C         2.72594724427140    2.12855176099650    9.20808841939812
C         1.60222779027999    2.01514473029459    9.62521127660289
C         0.24735271942871    1.89117908404069   10.13883736738674
C         0.26702114265890    0.92029322547479   11.32595434457441
H        -0.74006096335110    0.79075450539729   11.71672247084470
H         0.90423283113051    1.30598080663534   12.12067432790316
H         0.65120364827627   -0.05014924284370   11.01991266171160
C        -0.67686426893137    1.36417053098733    9.03583793839299
H        -1.69378354524228    1.27570998776578    9.41192850232576
H        -0.34451432627222    0.38515277807836    8.69771693778543
H        -0.67949458564040    2.03999194889878    8.18276663821072
C        -0.21698236267415    3.27581719976272   10.61050162615373
H        -1.21134674846292    3.20534802807780   11.04568805128597
H        -0.25319950802258    3.97449389723166    9.77642186517347
H         0.46516745875096    3.66749336004761   11.36292650063235

