51
CSD_code = NEXTIT | q = 0 | S = 0 | Stoichiometry = C18H30N2Zr | MND = 10
Zr       -4.43674971748111   -5.89274844005197   -4.64852666804037
N        -4.66193048771977   -4.95882871315318   -6.82708966835715
N        -3.14956902794245   -7.73434640735469   -3.72783091363717
C        -3.49246145965940   -3.38261456137774   -5.42523866281222
C        -2.50311941438820   -4.31084616855739   -5.26671131066129
C        -2.50517006517813   -5.54153333198394   -6.00710448475597
C        -3.34237914138094   -5.44564269239193   -7.27753025117326
C        -2.82189662110939   -4.37682323417171   -8.27381287558530
C        -3.59617980926659   -3.10163774033859   -7.90092089334643
C        -4.38335599920533   -3.52279477268107   -6.63996153027533
C        -5.72103043382628   -5.19438248728634   -7.80304619618653
C        -3.33682133937049   -5.65664899982460   -2.60009120916858
C        -4.55327897692779   -6.14509395552313   -2.00259073778555
C        -4.93558310345739   -7.44169718856447   -2.12777136893255
C        -3.93485516825243   -8.42502739365799   -2.68706026631849
C        -2.91426456001768   -8.77820974083951   -1.58547771245288
C        -1.93884133720304   -7.59287349447137   -1.63468897973487
C        -2.36303592421076   -6.79375604207685   -2.89600686868945
C        -2.32780801436480   -8.66256828322753   -4.49878081354692
C        -6.23104364233083   -4.62927335509615   -4.14049830963225
C        -5.63327756607479   -7.61100593962330   -5.47808418388832
H        -3.51640066646439   -2.45163888457540   -4.87572589444588
H        -1.73285890080420   -4.14913221735857   -4.51262926787571
H        -1.53374813731295   -6.02054343611308   -6.14803072535335
H        -3.44046657759481   -6.42731518527237   -7.76279556111127
H        -1.74748072429028   -4.24168987675599   -8.15535024233935
H        -3.00872760877322   -4.66760756581089   -9.30944628406110
H        -2.92962255327391   -2.27009838867414   -7.67700419272418
H        -4.26337636458864   -2.78680469879716   -8.70586766489803
H        -5.31266220797222   -2.95653526749002   -6.52732567027812
H        -5.52225897272474   -4.71027444151218   -8.76610055232184
H        -5.82466668497690   -6.26656724317263   -7.97254586432354
H        -6.66520440714657   -4.81361704759032   -7.41003253646974
H        -2.89155904916300   -4.77276710064247   -2.13731739846661
H        -5.20387892355259   -5.43735052736969   -1.49201875171284
H        -5.85939861759727   -7.82672805209448   -1.72259129922183
H        -4.42349494773939   -9.31574668226496   -3.09330955628679
H        -3.40613142244535   -8.86518480094856   -0.61802226995016
H        -2.41061766563959   -9.72500693312028   -1.79179445010191
H        -2.03010934199902   -6.96665326733943   -0.74823003605583
H        -0.90267644313624   -7.93072621789800   -1.70010573961690
H        -1.47978316118390   -6.44141896469979   -3.44575634623894
H        -1.61786376886867   -9.21969357398669   -3.87611619463462
H        -1.76523163087029   -8.10943449889839   -5.25291948728049
H        -2.97663352848222   -9.37768578975754   -5.00771054314474
H        -6.81502743664627   -4.24775534041562   -4.99015608167979
H        -6.93687615499170   -5.21602625695971   -3.52926567741765
H        -5.94538020230380   -3.75022761803213   -3.53897353246920
H        -5.89614781176202   -8.37797070726822   -4.73729687234869
H        -6.59106451703386   -7.27915336817031   -5.90719171406961
H        -5.08649976130093   -8.13339310475424   -6.28434568811177

