71
CSD_code = NEXTOZ | q = 0 | S = 0 | Stoichiometry = C30H38N2Zr | MND = 10
Zr       -0.50138545252786    3.51520249283047    4.95724403986248
N         0.98402047405328    2.75782675456454    3.03013180717345
N        -1.03820071578495    2.13294682781235    7.03997051715304
C         1.44545749201678    1.40725925897345    3.39326575507302
C         0.44543763357011    0.81233552150635    4.35732010182403
C        -0.87412201031929    1.08410389542118    4.15265971933863
C        -1.29631230453381    2.13562644255400    3.26507937059272
C        -0.21771908076924    2.43332495331842    2.22832274374161
C         0.16601003961826    1.19764972576684    1.36990735602997
C         1.39223640310875    0.60089389744058    2.07858679073089
C         1.99391832226976    3.49182428913322    2.27249651195711
C        -1.32735691636150    3.42624922925230    7.70914352668322
C        -1.86824642410999    4.29767296046115    6.57968948083068
C        -3.00368608077375    3.65256433179087    5.93542707459414
C        -3.23218497512045    2.32709537352115    6.06091524914572
C        -2.38735080880938    1.53541590417084    7.03109138552826
C        -2.94055963578037    1.75235900732081    8.45218499536838
C        -2.36748628188333    3.12672353450510    8.82015851675752
C        -0.07484741681034    1.31637272345117    7.77255844603016
C         1.61586697360305    3.95917396036461    5.69178601303662
C         1.60993371599990    4.63137156533823    6.99066192709198
C         2.16573195371991    4.05083031496532    8.14198750642091
C         2.10098559873682    4.67603212582766    9.37249437679028
C         1.49787779775752    5.91613941956763    9.49860484096701
C         0.97809133157721    6.53132526890518    8.36776449025345
C         1.03471593760667    5.90743095971634    7.13973284651625
C        -0.65491851038300    5.43284733977386    3.72972425133388
C        -2.06280532229623    5.82919626550052    3.73736968132144
C        -2.55112365441286    6.80908762331226    4.61666834464343
C        -3.88801527217722    7.15141390233603    4.64146981176208
C        -4.78689245274293    6.54313043965530    3.77879809787657
C        -4.32314102280149    5.59554211979265    2.87853872798034
C        -2.98807146721828    5.24570143817640    2.85466221071178
H         2.45430242305274    1.43836943343247    3.81760728870988
H         0.78631766042314    0.01116339974477    4.99815791184947
H        -1.62998854031959    0.52214034881025    4.69398639544968
H        -2.31372199413932    2.06343085659167    2.87643087570436
H        -0.49321832610314    3.27676237974885    1.58435594856689
H         0.39808001132763    1.47921784337055    0.34141674395982
H        -0.66103749587266    0.48948603236244    1.34180141120671
H         2.30304620679546    0.73322734302951    1.49150603923421
H         1.27421748344122   -0.46324154741615    2.27739062373246
H         2.91567159386006    3.54622629450589    2.85279305053197
H         1.64563311964849    4.50930552018847    2.08862447697500
H         2.22254974498603    3.02809902500355    1.30654495799736
H        -0.41717155144379    3.84851299783837    8.14638726396919
H        -2.02304578555681    5.34201441290995    6.85579576468490
H        -3.67165125948141    4.25518251137395    5.32521318403123
H        -4.05970408622913    1.82623615358153    5.58054511233784
H        -2.34923585223301    0.47160312704792    6.77478477462366
H        -2.59668691282521    0.97278717110137    9.13486282561440
H        -4.02936542453882    1.74361941636934    8.45186525178819
H        -1.90607496910738    3.11849307033570    9.80854374406731
H        -3.14204993437367    3.89216058936064    8.81882129175699
H        -0.30971342432283    1.23470408094503    8.84001480831114
H         0.91504652407517    1.76240184582382    7.67177925580435
H        -0.05062805091672    0.31104305378513    7.34913722647839
H         1.97731749783080    4.65655247993972    4.91986798782157
H         2.27648594077488    3.07941845798033    5.71784792509099
H         2.67357789445403    3.09661092704019    8.06134182192437
H         2.53580078454117    4.19714559363756   10.23931984383319
H         1.44749290601933    6.40511350522520   10.45983945271252
H         0.52706376170830    7.51035986282355    8.45195806063571
H         0.62957179632147    6.40363610427867    6.26412748649092
H        -0.02596349116585    6.23574156002326    4.13700028948023
H        -0.33504276961097    5.22562144722622    2.70187823468280
H        -1.85824830457026    7.31145397516581    5.28096813785685
H        -4.23554508417894    7.90785690167586    5.33160606082030
H        -5.83201030710213    6.81421645222046    3.79729655903046
H        -5.01217624087925    5.13081806381614    2.18638095495689
H        -2.64065341227229    4.51693944203574    2.13058444213941

