45
CSD_code = NEXTEP | q = 0 | S = 0 | Stoichiometry = C16H24Cl2N2Zr | MND = 10
Zr       -0.68030809655193    4.62876987145161    0.84534158056041
Cl        0.92975681118987    5.39852976880787   -0.71757834510563
Cl       -1.97928729268865    3.32597220657601   -0.69333699731389
N         0.56186213371223    2.77351922695848    0.71567927243361
N        -0.43025111707839    6.75581094990573    1.69156007149327
C        -1.11727470798527    2.68529065154695    2.42675231092496
C        -0.44278329510288    3.68454840838134    3.10128839501668
C         0.81558231088760    4.15526195891697    2.63355290446733
C         1.55261720897956    3.16620273855122    1.73666546252332
C         1.92016716688372    1.85717719855645    2.47591708477454
C         0.69663067324449    0.94780977962802    2.25904559732252
C        -0.29124647523715    1.83930465215626    1.47454206599195
C         1.13441373864620    2.18569838985360   -0.49069013205081
C        -2.51369782367482    5.86981809124294    2.49512782018309
C        -2.90281799598902    5.71838667329316    1.18626218536406
C        -2.13311059580080    6.27861012721456    0.12537772795822
C        -1.19109993809443    7.37973573081022    0.57564129686639
C        -1.92501643340034    8.59664119885668    1.18861635275428
C        -1.95456455590746    8.30694847614377    2.69776445242817
C        -1.41045208636078    6.86732220045220    2.78899241209982
C         0.83407537371970    7.43993548604217    1.95298874050251
H        -2.06867051725044    2.29699261418307    2.76880233749888
H        -0.91173753984598    4.17351055612761    3.95381878168072
H         1.43831423940363    4.73627911168405    3.30884937992334
H         2.42540389189627    3.63653490114086    1.26473222202691
H         2.09646707377043    2.05321470544777    3.53290916035983
H         2.82521219227543    1.40930252540201    2.06295229828613
H         0.25690948483515    0.62277564777698    3.20083755528132
H         0.96023715814989    0.05689049197970    1.68726639672548
H        -0.93010594980594    1.26260958161766    0.79835861766653
H         1.70209054131092    1.27316265068789   -0.27805271671700
H         1.79543123359755    2.91375614059694   -0.96576901190478
H         0.32314270339161    1.95225418745749   -1.18437143775034
H        -3.10276885456827    5.49308411648058    3.32021987203775
H        -3.76372146958615    5.09352596766239    0.94695269948222
H        -2.56350469322793    6.35087127536614   -0.87115784091210
H        -0.51083198595021    7.67696123453207   -0.23121152797871
H        -2.93020054292719    8.67073363054195    0.77595113699345
H        -1.40530625337318    9.53092580148104    0.97231263364262
H        -2.96054042218318    8.36866792928118    3.10944764056047
H        -1.32018115653979    9.00160904323781    3.25144342000306
H        -0.93483774392041    6.67411393053732    3.75780792498508
H         0.70979011767274    8.52534466275053    2.02695316760732
H         1.26746648132587    7.07685709180765    2.88577252190465
H         1.52284700815639    7.21662841687266    1.13456450940327

