60
CSD_code = NEXVAN | q = 0 | S = 0 | Stoichiometry = C32H16Cl3N8Nb | MND = 7
Nb        2.14992729182154    3.11125868499815    3.87226192428333
Cl        3.98667374138017    3.77610160983577    2.43750962450709
Cl        3.37106727549202    1.09438123194893    3.96912757671703
Cl        1.26784471709097    2.31501926523135    1.83168449465974
N        -0.10755838167715    3.20714639818446    4.11484352864682
N        -0.58159758656868    4.96813528906408    2.55073690833535
N         1.62093335684273    5.22327761335906    3.45859287904970
N         3.64584005113907    6.33054752313188    4.12126353918338
N         3.43696764379136    4.24015916784556    5.28664106338046
N         3.83247995669572    2.57053584494462    6.95945728974674
N         1.69665979760759    2.22799591762753    5.91545951323596
N        -0.47669851656044    1.29559937795985    5.51546964799561
C        -0.84203662290138    2.17208747854591    4.61196150263917
C        -2.16701734905920    2.17834128535019    4.02752093771583
C        -3.27083373248378    1.35617835353448    4.18811758888602
C        -4.40300977977374    1.65729345867791    3.45050414907508
C        -4.43672901890031    2.74830841327767    2.58299734140619
C        -3.33975034794328    3.57723523804426    2.42256793685341
C        -2.20124984540074    3.27880702140573    3.15437552527328
C        -0.89331994835179    3.89291882658925    3.23151090716015
C         0.56776515681009    5.58645169827890    2.66854201140885
C         0.84094410734744    6.85902308013548    2.03543116261485
C         0.12980853325772    7.63309139103650    1.13189641651887
C         0.69916480752754    8.82856753659742    0.72850987696719
C         1.93651474463731    9.24609364412849    1.21761068786098
C         2.64843846884474    8.48254802383603    2.12645804805158
C         2.08883248754523    7.27979930929807    2.52898194814934
C         2.53920606875258    6.23767995755064    3.42569630352747
C         4.05631566389205    5.41845457664912    4.96802122425586
C         5.25873087766361    5.57085820694220    5.75776034071931
C         6.23650269012284    6.55248182743901    5.80428018530817
C         7.28591476798909    6.36773385862663    6.68771638805519
C         7.35726523217099    5.24145961824570    7.50682639012798
C         6.38159986351293    4.26018865974971    7.47111345571964
C         5.33183611386654    4.43438141933315    6.58288480550178
C         4.15812701868648    3.64325659351621    6.28052769614996
C         2.69770094092777    1.93580268331773    6.79899302888597
C         2.32079820021598    0.80231537098898    7.61569346907906
C         2.96801980693799    0.11705929794600    8.63168403363538
C         2.30746331510603   -0.96093238376436    9.19547505079917
C         1.03719459035896   -1.34165246412161    8.76480932694891
C         0.38275587794825   -0.65852341872132    7.75407362370701
C         1.04159903149137    0.41700527388571    7.18028778776867
C         0.68534330035136    1.33713593070856    6.12033321198339
H        -3.23483728023004    0.51370069345455    4.85977992969721
H        -5.28023288922000    1.03446337691224    3.54447860336327
H        -5.33958963127107    2.94635021253070    2.02457332518412
H        -3.35525789607201    4.42232722202089    1.75363246823516
H        -0.82509480398789    7.30079973568074    0.75797952327996
H         0.17822864681282    9.45282651403555    0.01775984691728
H         2.34555768201784   10.18511888539820    0.87536506876983
H         3.60601347903740    8.79558796944226    2.50965118795387
H         6.17254310221028    7.41891778090952    5.16634749557136
H         8.06948877814248    7.10858964636649    6.74570606056155
H         8.19458596133280    5.13481963480052    8.18044497301331
H         6.42920450979320    3.38507885694548    8.09881295516518
H         3.95061987635772    0.41842909323884    8.95664136238698
H         2.78378987430155   -1.52333550781498    9.98480441391455
H         0.55793192156955   -2.19025524272709    9.23004903715349
H        -0.59838569900217   -0.94672656238057    7.41276339634443

