143
CSD_code = NEXXAQ | q = 0 | S = 0 | Stoichiometry = C46H72B2N12O4PdS6 | MND = 4
Pd       -0.00164526645772    8.17402217713306   -0.00002314143116
S         0.11404298306400    7.63375162639947    2.28215882208486
S         2.35243213982027    7.93309339539921   -0.23499214390148
S        -0.94955695870057    4.14677500188649    2.69582651363197
O         1.49665249855537    3.49025362040475    0.92387525068766
O         0.00633204251126    2.61654354821374   -0.50257945048630
N         1.91208399415832    5.64089185965923    1.83851626380754
N         2.23874176762633    6.75395190436873    3.70593107545849
N         2.11599182358505    5.27123418740304   -0.65802664883895
N         3.36000492669588    6.28043809328164   -2.16496042120880
N        -0.16727094585334    5.24847289588638    0.39379968862215
N        -2.33971701624588    4.84370172504313    0.45808460587175
B         1.29519610571766    4.91833402385304    0.61881373100746
C         0.72428477287361    2.52190023701874    0.46596596627843
C         0.86265202054196    1.26259190967362    1.28516691198235
H         0.40163213826525    0.42709979205000    0.76755594489196
H         0.35343610612486    1.43423372182949    2.23201610988708
H         1.91004280368167    1.06171412283864    1.49235748712716
C         1.45120728393695    6.64373300984777    2.60675539080050
C         3.02021499626046    5.12561999421245    2.45352163924801
H         3.55394187483216    4.30529092992545    2.02362730762488
C         3.22130382408263    5.80053948836129    3.60358861121475
H         3.98330838885211    5.66421086217884    4.33853136910611
C         2.07513820774793    7.69824278266211    4.81630408266192
C         3.13668429812262    7.43910949467049    5.88707782925792
H         3.05017327850676    6.43342990407070    6.29118934439389
H         2.98378484870513    8.14263451759734    6.70143567507911
H         4.14092655018279    7.59154089061092    5.49834882808082
C         2.25035263609751    9.12195130960762    4.28016249331864
H         1.52454170819219    9.32905040809457    3.49983218803801
H         3.24934376136081    9.24395690082054    3.86641538691951
H         2.11357877607635    9.83951191361113    5.08381601980228
C         0.69291106244648    7.49379689334872    5.44058091339317
H        -0.08889236666877    7.70674793570990    4.71908981468063
H         0.57278904959180    8.15184011308470    6.29668187722983
H         0.57892055824532    6.46307128332882    5.76800020087599
C         2.60340785964849    6.46334123490712   -1.05266212788563
C         2.53483470653724    4.33262253850543   -1.55826768169927
H         2.23843362374376    3.30854767017498   -1.48185263187919
C         3.30409703023534    4.94689952428555   -2.48272585406662
H         3.80163977914128    4.52495876952729   -3.32744137648644
C         4.12803278903055    7.29948381159912   -2.89074185473119
C         5.15144943245701    7.90603689579778   -1.92718083890170
H         4.64892736776111    8.37847685681770   -1.08827558735311
H         5.75307009034594    8.64663428860222   -2.44643809827914
H         5.81113210699005    7.12978550892018   -1.54310985397645
C         4.87818321600789    6.65926942125918   -4.06032959679171
H         4.19065635781563    6.22095839664324   -4.77949161544446
H         5.58062262604695    5.90262577133280   -3.71777266611135
H         5.44306337180487    7.43510971676327   -4.57023368858169
C         3.16196161556598    8.34748029573445   -3.44237714073272
H         2.43502890314341    7.87378233729625   -4.09844439486785
H         3.70443924162260    9.09693797913979   -4.01010640140993
H         2.61969327404146    8.84539497755929   -2.64470846854974
C        -1.17554511250252    4.73853821200137    1.15926300042031
C        -0.72279244751766    5.69740746375890   -0.79464387894639
H        -0.11736125665532    5.98881461963091   -1.64356556930815
C        -2.04820286533103    5.42679248391288   -0.75353413196346
H        -2.78984254604481    5.63163833310552   -1.49489947067201
C        -3.60069836237621    4.18578481257972    0.80478539211220
C        -4.11360925852800    4.71647431011692    2.14370406965971
H        -4.33318122568509    5.77537844947556    2.05988980083293
H        -3.36405180318897    4.57081604091143    2.91581174188702
H        -5.01803881394920    4.18481012389736    2.42724382689023
C        -3.34027019667870    2.67777947017373    0.88293911509460
H        -2.85826091784788    2.33119608538387   -0.02877876780178
H        -4.27571331341859    2.14239664265444    1.02028758970977
H        -2.68533025695674    2.45795974677861    1.72125670505677
C        -4.64946424248847    4.46755733513114   -0.27185922735783
H        -4.36735591483349    4.02222162164563   -1.22277534023502
H        -4.79697933591115    5.53767633131844   -0.40004674300582
H        -5.59464715181497    4.02972670680768    0.03922491074931
S        -0.11123964294449    8.71902878892272   -2.28196155882055
S        -2.35354420152412    8.41810925187032    0.23338468422644
S         0.95080734533111   12.20360898010007   -2.69508694697073
O        -1.49663443036557   12.86048627315292   -0.92480757194657
O        -0.00717800586082   13.73405093576414    0.50261807936642
N        -1.91154531093414   10.70972469703982   -1.83931381473960
N        -2.23734648952119    9.59578378174519   -3.70635187418743
N        -2.11715414386046   11.07976741633639    0.65689216457447
N        -3.36129241391998   10.07034510356906    2.16359211371023
N         0.16677784283434   11.10179180537571   -0.39367437753484
N         2.33939804768229   11.50591181234971   -0.45661018446505
B        -1.29547810643291   11.43247467725978   -0.61940298220280
C        -0.72453182549911   13.82877817599853   -0.46636243994800
C        -0.86226571622211   15.08803399823154   -1.28572954544885
H        -0.40158754191077   15.92351230491214   -0.76780364157073
H        -0.35240317344885   14.91633391761103   -2.23222342170066
H        -1.90950888599980   15.28891744795189   -1.49365320005621
C        -1.44985237437090    9.70696825981385   -2.60710518761252
C        -3.01954591500343   11.22454729527431   -2.45492455932404
H        -3.55355058048387   12.04497662230390   -2.02556891159076
C        -3.22009200795776   10.54913047402600   -3.60475788105179
H        -3.98186123773864   10.68508582039797   -4.34003488018277
C        -2.07371658136957    8.65107509003014   -4.81642077087643
C        -3.13506965906851    8.90994044446958   -5.88751004456420
H        -3.04848500451678    9.91547005265455   -6.29197733608182
H        -2.98211198854029    8.20617115613472   -6.70165820294010
H        -4.13942142327352    8.75769830326123   -5.49899179899674
C        -2.24957892051104    7.22739671313777   -4.28033845854577
H        -1.52411448402049    7.02000652272445   -3.49985278397769
H        -3.24867394326875    7.10569001760010   -3.86676234234444
H        -2.11278242644254    6.50969609623954   -5.08385629807518
C        -0.69152316906087    8.85543655852593   -5.44074499944773
H         0.09015065401943    8.64294438909789   -4.71901880051793
H        -0.57122062400626    8.19692559451933   -6.29645709348464
H        -0.57759566898489    9.88600973847607   -5.76868638954229
C        -2.60444921119865    9.88761322497163    1.05141928210829
C        -2.53693130197109   12.01841848408915    1.55663952723510
H        -2.24109161014577   13.04262734593339    1.47999560827077
C        -3.30629666766585   11.40402484876855    2.48092969797104
H        -3.80447153498146   11.82597118418404    3.32526184361140
C        -4.12880384784860    9.05103018182871    2.88956275569678
C        -5.15145315486026    8.44338933744889    1.92587483942525
H        -4.64824925389301    7.97071550754856    1.08749148527231
H        -5.75292929148965    7.70279643520265    2.44531396187146
H        -5.81138513279921    9.21906809813241    1.54105990652964
C        -4.87973740906032    9.69121966053925    4.05865748065793
H        -4.19272584746535   10.13025801496906    4.77786730258705
H        -5.58251446610296   10.44728583660882    3.71553156556341
H        -5.44432749485530    8.91525442606783    4.56868809524206
C        -3.16233727608611    8.00387154711897    3.44212703051321
H        -2.43567490668907    8.47837033256964    4.09792128232358
H        -3.70448703428013    7.25451385839035    4.01029741724399
H        -2.61975331883125    7.50562120203175    2.64493157125869
C         1.17570250363773   11.61140131502951   -1.15853251334034
C         0.72146545669184   10.65204578920068    0.79491636528168
H         0.11541723329686   10.36136095696018    1.64374390610174
C         2.04697282184790   10.92262533290302    0.75472901755513
H         2.78807038054190   10.71788113392780    1.49670263831013
C         3.60075757268197   12.16364108968395   -0.80237555861555
C         4.11433215107476   11.63299169972111   -2.14104719772972
H         4.33326737120971   10.57395259846855   -2.05726864192755
H         3.36538719926827   11.77920973654804   -2.91364705343941
H         5.01925860508806   12.16420489803722   -2.42384693574270
C         3.34088776057383   13.67174556774439   -0.88053773667778
H         2.85869066966865   14.01843761896036    0.03102523730004
H         4.27654655323096   14.20684251669783   -1.01753023803257
H         2.68631720399280   13.89185943057031   -1.71905823111643
C         4.64883772383378   11.88142650653241    0.27481836902802
H         4.36628117981417   12.32667668393586    1.22563136588656
H         4.79598675696669   10.81124105872589    0.40289488508969
H         5.59431858128633   12.31908076486563   -0.03561575700087

