74
CSD_code = NEXZOI | q = 0 | S = 0 | Stoichiometry = C32H34Cl2N3OPRu | MND = 9
Ru        3.44662089220771   15.83835655885244    2.04641998929479
Cl        2.61074361414939   14.78149057791457    0.11113609280562
Cl        1.67587967917842   15.01010500740235    3.36621344181737
P         4.43723578245014   13.81538897249407    2.29429156382978
O         5.14557270258411   13.64724883705586    3.74616742650034
N         3.50551075716589   11.82862949820810    6.50073125253722
N         2.54812415529135   10.90905639797837    6.41325035726790
N         1.89851949759977   10.88083307833201    7.50643814918017
C         5.91996760735698   13.68168104385947    1.26678267949673
C         5.77406915493636   13.26523709687811   -0.05243267312784
H         4.79246771890455   12.98958199287534   -0.41186151589540
C         6.87781568493796   13.21668784745300   -0.88415352011456
H         6.76631581768053   12.89129924792602   -1.90737946105284
C         8.12478570638464   13.58885494581037   -0.40678624375588
H         8.98589620874016   13.55106130875475   -1.05760433825879
C         8.26898690406826   14.01165817003901    0.90499293822609
H         9.24158989701353   14.30275065416918    1.27541610519795
C         7.16837521619472   14.06385959225316    1.74175917848878
H         7.26968938919878   14.38588789393811    2.76744319304809
C         3.61890778515155   12.20331989045998    2.04518723268126
C         4.43769359683151   11.07522856960274    2.07965960847831
H         5.50616935513624   11.19740699696826    2.20328957446597
C         3.88221714140650    9.81642389866238    1.95888641122023
H         4.51744973453012    8.94313538398867    1.98484073320938
C         2.51056546449834    9.67751800264342    1.80696696556841
H         2.07764814246157    8.69239439448402    1.71782078188955
C         1.69899105141034   10.79775111003444    1.77093574793873
H         0.63187194446606   10.68959702580234    1.65293222375703
C         2.24796651808920   12.06409058653238    1.88911863697032
H         1.61597870962110   12.93864786735693    1.85579051812541
C         4.33627650564123   13.51304507778852    4.91021077592972
H         3.29462051919283   13.78792650539870    4.69726206699089
H         4.74174148127416   14.19858248587881    5.66189317177097
C         4.40645878591394   12.06620631477301    5.41291585509897
H         4.10962766889355   11.38878821889996    4.60876214674663
H         5.43322133921971   11.83192884203830    5.71652418655143
C         3.45969946604940   12.42052633213762    7.71574193983564
H         4.14533251398160   13.18649839082640    8.00768122542952
C         2.40846088480722   11.79782924929376    8.36830579550224
C         1.87487174758536   11.98801856008151    9.70537845377093
C         2.39416692781405   12.95337408834899   10.56529593288122
H         3.20763198909024   13.58493081856844   10.23960255228535
C         1.87043712195253   13.10832389303802   11.83496364630816
H         2.27834890117065   13.85965739083844   12.49598439870046
C         0.82574177192437   12.30519511992400   12.26180874445833
H         0.41999689703847   12.42954417269556   13.25516192448284
C         0.30389400870744   11.34383173946844   11.41110258203330
H        -0.51097404883312   10.71647460422950   11.74174605555108
C         0.82257965492022   11.18418287017829   10.14123307605948
H         0.42948377046908   10.44155509512038    9.46482624475599
C         4.34685674630279   17.54102715328423    0.78223233302026
C         5.31607691981390   17.10165148640151    1.69744199259963
H         6.31000034595766   16.84186251773557    1.35332968758617
C         5.03054536206382   17.04969265803424    3.08751276621522
H         5.81302678061782   16.75420779488934    3.77930992430565
C         3.78385661035796   17.46838271644428    3.58471980024199
C         2.81846682846904   17.95561246527700    2.65563586358149
H         1.87301010865250   18.33328594842755    3.03219250100930
C         3.08979638326711   17.98548345676387    1.28977119661803
H         2.35734905216869   18.39242634371041    0.60061379561279
C         3.47095660122876   17.46731360749828    5.05023421327004
H         2.64799304561423   16.77660286565289    5.24669161584161
H         3.16066644892408   18.46068427150375    5.37378218607051
H         4.33440316788402   17.15713019635106    5.63484845339033
C         4.65420290460137   17.71232025217597   -0.68601333034703
H         3.70223788968814   17.79579897859220   -1.22200272628736
C         5.43561597510309   19.01849257418624   -0.87218378400315
H         5.61927726692822   19.19165780890646   -1.92951777967759
H         6.39438524230431   18.96534487319508   -0.35952605853496
H         4.87802245006139   19.86497663263565   -0.47525853516094
C         5.41527599212811   16.52732709360601   -1.27691725847492
H         5.51376962659326   16.65527548714708   -2.35188807670650
H         4.86592680215524   15.60764101082074   -1.08764246384211
H         6.41323771275874   16.43479958836895   -0.85352014156593

