91
CSD_code = NEYDEA | q = 0 | S = 0 | Stoichiometry = C24H58B2N2P4Pt | MND = 4
Pt        6.19344033811123    5.36539851657153   12.35791178560719
P         6.19222955306101    3.44373224254129   13.80473859694728
P         5.99709589985171    6.78824141209649   14.23925258974527
B         5.03057082430971    2.93249830775918   12.35615474042294
N         3.78574948885013    2.29375154403572   12.41170145580469
C         3.04024042736388    1.88698685902107   11.22107132342134
H         2.11331153648748    1.40937212722089   11.55461646942257
C         2.66601937393048    3.09914984304348   10.36650540094914
H         2.06403806668929    2.78985807728163    9.51503115190121
H         3.56778631983739    3.58410218628858   10.00185331682844
H         2.09875001389248    3.81576384235220   10.95635816396116
C         3.82109988717078    0.86382377538487   10.39352257270234
H         3.21806432469249    0.51941974157969    9.55635219612766
H         4.09215087360433    0.00816738601422   11.00765860935599
H         4.73226919880285    1.31435945394139   10.00684491816707
C         3.17771772994387    1.96329330915372   13.69416746178663
H         3.85571514849005    2.36771299323057   14.45573092360809
C         1.81604439950642    2.63610058459458   13.88951154227870
H         1.89879009841093    3.69960100586939   13.68179187899629
H         1.48855112546176    2.50586237707376   14.91820714145270
H         1.05766024076983    2.21163036544552   13.23556578229874
C         3.08666095357566    0.45090279601850   13.91593314026017
H         4.06836360198011    0.00119411090994   13.78492944230209
H         2.39358011172974   -0.01456130890267   13.21867663024852
H         2.74296138171144    0.24701579707471   14.92720578057503
C         6.99252644688940    6.42225623266649   15.74681674304232
H         6.86317383968605    5.35233275971930   15.93205363116481
H         6.59926960134870    6.97154702690626   16.60563573247239
C         8.46558805481698    6.72590621132454   15.50692095756871
H         9.07327841680732    6.38937855082748   16.34493785052367
H         8.63122325476206    7.79305438295224   15.36848473966548
H         8.80109243840158    6.20866722692870   14.60858363304760
C         4.29114275032932    6.43859999775579   14.84712359235511
H         3.97631959990556    7.15890490321527   15.60622168538737
H         4.32778943310440    5.44441397461306   15.30137972421991
C         3.33310568653233    6.42161405052863   13.66195625762235
H         2.33860590530203    6.09452210449516   13.96148761911695
H         3.72203013357281    5.72771040541132   12.90325914170270
H         3.24791025014049    7.40987688611302   13.21161882742479
C         6.02166259688351    8.64733287868901   14.16787243971375
H         5.23033608233083    8.92515046554721   13.46544980339048
H         6.97161200555545    8.92990595068923   13.70538602428005
C         5.84362595723686    9.40511104256030   15.47667757164071
H         5.77060302056138   10.47304623484507   15.27435508142488
H         6.68904737736143    9.24778725131344   16.14136226700068
H         4.93667544285356    9.10021612439553   15.99334963086327
P         6.19587004782086    3.44360817223211   10.91129666410930
P         6.39079037099355    6.78852245468520   10.47697704484730
C         5.39512706719609    6.42238337861575    8.96959748825538
H         5.52451942422922    5.35246828848747    8.78432766176838
H         5.78816015962234    6.97169138916845    8.11068988174384
C         3.92207126399887    6.72590726576819    9.20973845482546
H         3.31419480722188    6.38903070821555    8.37199692230874
H         3.75632227397044    7.79307552956876    9.34787425352537
H         3.58686537508149    6.20891047383688   10.10832732031367
C         8.09669061701493    6.43901245521213    9.86889997705994
H         8.41143140195487    7.15939059703964    9.10983961561433
H         8.06005561306226    5.44484740940186    9.41458521770221
C         9.05476264898243    6.42198735213534   11.05404049336034
H        10.04921493857754    6.09477608879449   10.75449096142328
H         8.66577191346966    5.72814031966353   11.81277714649204
H         9.14006072297449    7.41025309988965   11.50435150847400
C         6.36582907681457    8.64760909210355   10.54833412656444
H         7.15703771623191    8.92558970326685   11.25081700215351
H         5.41577192756165    8.92998710066848   11.01072370323122
C         6.54382481401045    9.40538562076762    9.23952323278503
H         6.61671833386298   10.47333088403488    9.44183519194789
H         5.69845002753170    9.24795885598150    8.57480525792132
H         7.45082613702147    9.10058698748756    8.72288730613187
B         7.35747694057262    2.93242516466367   12.35991578303619
N         8.60220807943422    2.29350042664671   12.30447908347950
C         9.34755769863197    1.88674195309215   13.49521189910914
H        10.27445686247538    1.40899061282499   13.16178586650883
C         9.72185163925520    3.09894292933643   14.34969099643089
H        10.32363953895192    2.78963711248868   15.20129601411973
H         8.82010867385515    3.58408707445612   14.71414769400387
H        10.28933648005680    3.81539813998093   13.75985177271861
C         8.56650345871205    0.86373502848910   14.32277234612710
H         9.16941937566052    0.51931219847602   15.16001950573405
H         8.29537588478120    0.00807413355482   13.70867637810707
H         7.65536767178558    1.31442361121801   14.70934770466964
C         9.21029823068412    1.96283894842148   11.02209467652530
H         8.53235526210190    2.36717852201191   10.26043846612560
C        10.57202364708940    2.63554890448793   10.82675014013298
H        10.48934542804231    3.69906042164168   11.03444910517621
H        10.89953873308573    2.50526640250351    9.79806554700435
H        11.33035924686894    2.21103504487065   11.48072634624309
C         9.30133937245107    0.45041064929878   10.80054264394124
H         8.31966887765568    0.00070041854239   10.93177609585096
H         9.99454376472593   -0.01494011598424   11.49775340240233
H         9.64487924127435    0.24636718486107    9.78924613117509

