43
CSD_code = NEYDOM | q = 0 | S = 0 | Stoichiometry = C20H2F14N2O2S2Zn | MND = 4
C         9.07819287914814    5.45164958984392   -0.65713594186588
C         9.96810572615719    5.24086949465643   -1.71491460955390
C        10.47618951875565    3.99449387231649   -2.01871547899858
C        11.42894953015514    3.88621803301141   -3.22620553280081
C         7.54255782452907    6.38666950182080    1.02778345543536
C         7.74449870855265    4.99522351986697    1.07288462441244
C         7.08407231370936    4.21890267380540    2.02016700431385
C         6.23590401396706    4.82300839044157    2.93119480672026
C         6.04524098014955    6.21227474115252    2.89131376728194
C         6.69189424281839    6.99589114856426    1.94139783946862
C         8.90934810672952   -0.09605066216484    0.82523973957372
C         9.81762821886388    0.05340925564091    1.87784738058049
C        10.40265845387194    1.26455215007410    2.18559821789558
C        11.37602139300319    1.30438125874749    3.38088163097358
C         7.31028310399847   -0.92522098328097   -0.85611799865157
C         7.59538559668775    0.45185335156911   -0.89331177321167
C         6.97862147227104    1.27264689203429   -1.83250882922538
C         6.09132001519210    0.72676780044750   -2.74301342929189
C         5.81722832616885   -0.64866469403652   -2.71076782102537
C         6.42002897044348   -1.47599887002617   -1.76911140570382
N         8.59651488037962    4.50857871987451    0.13750224403517
N         8.48010607165699    0.87990629737098    0.04036569668518
O        10.26211908297781    2.88989859356144   -1.44456351845014
O        10.25372901357694    2.38365544417347    1.61891978147040
F        11.68928376049061    5.06076757918399   -3.81393231559543
F        10.90753248097609    3.09089695819065   -4.16980775712190
F        12.60476238514753    3.35974073687493   -2.87377537367942
F         7.28805508020886    2.88597108562031    1.99969277983675
F         5.58991951773018    4.09968055911696    3.84396273975838
F         5.22468360444218    6.78014146804731    3.77532438948604
F         6.48980071886426    8.31268943213818    1.91328733470651
F        11.48126455307570    0.13688096651225    4.02820067968417
F        10.98315906673436    2.21166476754843    4.28306546359070
F        12.60925764324097    1.64334878668839    2.99228652504977
F         7.26324705334999    2.59059202459725   -1.80559376926315
F         5.48620682662120    1.49377812830053   -3.64809009570747
F         4.95978455345061   -1.16024456931894   -3.59411368898277
F         6.13906080448296   -2.77841403279123   -1.74822425171892
S         8.48157075308833    7.05747778246513   -0.27117547096929
S         8.21432499214970   -1.66027686342416    0.43285980996691
Zn        9.18547488449429    2.67347087897177    0.09079043651279
H        10.26338372301649    6.09426505455473   -2.30153459221260
H        10.06392915466872   -0.82004626274230    2.45754730659111

