72
CSD_code = NEYFEC | q = 0 | S = 0 | Stoichiometry = C30H34Cl3IrO2P2 | MND = 6
Ir        2.77235201032047   -0.03679362224748    0.05595308061676
Cl        3.51919452497168   -2.25157129367207   -0.11194338508807
Cl        1.85852321591047    2.11720526805758    0.11593436622381
Cl        3.84052327324918    0.46132344287010   -1.96084026535897
P         1.46532416068461   -0.20259566154078    1.97480542849989
C         0.75251855976983    2.31577001007374    3.06338061114617
H         0.04771083840542    2.43023392298409    2.25628647693864
C         0.92119714937590    3.34526370187340    3.97289841531122
H         0.33077657713501    4.24415771135923    3.87451998725205
C         1.84676456456222    3.23353745028126    4.99685617538051
H         1.98088208671576    4.04515930380918    5.69667437829188
C         2.59986194712658    2.07716037587041    5.12140030421116
H         3.32255857310713    1.97952940512139    5.91813364045862
C         2.43236139981291    1.04440117941757    4.21894114597265
H         3.01286906381929    0.13833080520133    4.31707602002704
C         1.51038868697998    1.15636376529260    3.17973339945721
C         0.50924499923052   -1.52027243210656    4.23645806172465
H         0.06503943835555   -0.56588945058867    4.48591106307901
C         0.31490317729712   -2.60948071983060    5.06358847693630
H        -0.28366154103836   -2.50507090077963    5.95696426236366
C         0.88490256209757   -3.83349764292754    4.74787795101183
H         0.73239085712470   -4.68236806144728    5.39814410205276
C         1.64470347109422   -3.96404437080937    3.59880381061292
H         2.08590159013445   -4.91663471330115    3.34555394902855
C         1.84412661202850   -2.87508613995370    2.76588224445948
H         2.43474898712452   -2.97923580657382    1.86689730111286
C         1.28281768286209   -1.64522134118981    3.08414096244945
P         4.86320419026916    0.61036703719720    0.68458979116112
C         5.86599252183938    2.93525157440532   -0.52290829655019
H         6.35352189341442    2.28999168048554   -1.23797210354398
C         5.96426827811652    4.31012785851294   -0.65018449372347
H         6.54376633855441    4.73232057652070   -1.45794950474932
C         5.30842594220845    5.14238659742484    0.24140319798004
H         5.37951636674744    6.21442358819037    0.13037088222224
C         4.54460074227775    4.60168746148748    1.26425776286910
H         4.01443646372358    5.24827109514293    1.94760087329568
C         4.44226139651460    3.23090187866260    1.39947089746147
H         3.82400100494578    2.80062710085844    2.17573696204463
C         5.11723572933195    2.39178531248797    0.51391077543470
C         5.79757169678294    1.13533544004270    3.32363486396064
H         6.05337480458544    2.13268294422568    2.99770217865536
C         6.06827933013319    0.74681300861493    4.62474701748705
H         6.52789404548438    1.44824024062117    5.30578428361747
C         5.75750947091391   -0.53283517839663    5.05394445807347
H         5.96735047766217   -0.82742873733046    6.07167203526378
C         5.18190180044927   -1.43522940914343    4.17294148362971
H         4.94243949507923   -2.43661896427287    4.49903114405041
C         4.90726161633125   -1.05054667987216    2.87329737805946
H         4.46480720245687   -1.74862912464631    2.17731055065207
C         5.20319039651068    0.24028367106133    2.44254175955225
C        -0.23532961588698   -0.18190859135126    1.24027912639503
H        -0.98509788642218   -0.45738278233330    1.98593643534658
H        -0.43140529146731    0.81968386709406    0.85347839559049
C        -0.23787917650437   -1.16339741762181    0.07415114925307
H         0.01340644379278   -2.17976238855199    0.42127421522625
H        -1.22902397363363   -1.19522038681459   -0.40380816369246
O         0.71343634657211   -0.72322724379528   -0.87602105598628
C         0.78964595221040   -1.55258894097376   -2.01885385500513
H         1.53671765266387   -1.11283304980492   -2.67808170152687
H        -0.18036425596861   -1.58133829901354   -2.52662812778829
H         1.09310250960270   -2.57003581012183   -1.75040906801700
C         6.29939785285120   -0.23352469727349   -0.08844441573915
H         6.11923494996441   -1.30997064617480   -0.03652776324621
H         6.35362178110886    0.03823053532617   -1.14442551622451
C         7.60993652640190    0.12618892517725    0.60401671256650
H         7.65974460435931    1.21219843029728    0.79916876540831
H         7.69284184495686   -0.38949042355612    1.57424604351526
O         8.66617329552051   -0.25723848821712   -0.24151365281879
C         9.93174461376118    0.01238726411353    0.30127666526174
H        10.66197060949487   -0.31975090649828   -0.43311040392483
H        10.08510649231634   -0.53009312883592    1.24256287653047
H        10.06298305169769    1.08549102138886    0.49026747781512

