32
CSD_code = NEYGOP | q = 0 | S = 0 | Stoichiometry = C13H17IRu | MND = 10
Ru        7.31095337195367    4.09930464454463    3.18398731816481
I         7.25603635818078    1.36934528053062    3.30895785240921
C         8.33879952178314    4.97986094210815    4.99321754275558
H         9.39843863140414    5.14016107423750    5.14425095762115
C         7.41165556015730    5.92660382006782    4.46723546316454
H         7.64561991213052    6.94385953065641    4.18758769306171
C         6.10545110561676    5.40725908890442    4.64785983885903
H         5.18435088085308    5.94519365670815    4.47434520771418
C         6.21561875862011    4.11476020867864    5.18388557472674
H         5.40122163148514    3.48810054950350    5.52241720021413
C         7.60716946341540    3.86194634686947    5.42006680826989
H         8.00336414975353    3.01042763306790    5.95718033540598
C         8.92274410940968    3.77808243350911    1.74434649634501
H         9.77129470523452    3.29831752750836    2.24048000291441
C         8.75496162982543    5.15245505422193    1.94010005201027
H         9.48272902659421    5.64662475126184    2.58632921685683
C         8.17030110832632    6.05904614128419    0.87468756649327
H         8.39312296751865    5.64289037082819   -0.10941209738158
H         8.65618450365198    7.03535145991070    0.92933007048562
C         6.65572536624871    6.23849804528014    1.05148180780944
H         6.46467033087771    7.12540514006682    1.66103066592805
H         6.17051234947537    6.40651494301330    0.08318729602300
C         6.00600624125410    5.04947924361394    1.72291820258277
H         5.03768938735380    5.29222381251219    2.16751693848298
C         6.17883242195068    3.72656320895427    1.31232956605891
H         5.34379485430346    3.05136856304211    1.50785108999014
C         7.01943931478257    3.32871431219704    0.11188566378546
H         6.92995126784549    4.10789275023892   -0.64900083106668
H         6.60818349125441    2.41068714277400   -0.30973551034500
C         8.50170376297549    3.08396997951229    0.46675960511686
H         8.66484759129823    2.01249299241818    0.58944716112872
H         9.14912622446557    3.42059935197497   -0.35042475558557

