48
CSD_code = NEYJOQ | q = 0 | S = 0 | Stoichiometry = C19H17BMoN6O2S2 | MND = 7
Mo        2.70657153587042    1.88141713356365    2.25860227654457
O         1.83535241682180    3.03266220790780    1.50436010458110
S         4.74947815115843    2.03142002036960    0.80818105393628
C         4.54912307498192    2.88781883566660    2.21762220506638
C         5.19831667563880    3.74385339496401    3.02000469882264
C         4.46653879248902    4.04314654440692    4.26108748957843
S         3.01042500015612    3.01119092686293    4.45184802836490
O         4.74830844459746    4.84431486017637    5.11065399250445
C         6.50998844288145    4.34659292483626    2.74833323624907
C         6.95450343296793    4.48708559370444    1.43293834050189
H         6.32067468966712    4.16973766566300    0.61798059010418
C         8.18888215150523    5.03995522465012    1.16551714278834
H         8.51528884914722    5.14636007368093    0.14053432109506
C         9.02131594888112    5.46736244391695    2.19550573444209
C         8.57635395268159    5.32532484472181    3.50246330258862
H         9.20555186792540    5.65084925355552    4.31889239401437
C         7.34024143556970    4.77374786725962    3.78224739618802
H         7.01676151980915    4.67945155126170    4.80627378596850
C        10.36047496261832    6.06419166205382    1.88649179105953
H        10.87654120675335    6.35632687988939    2.79755374101971
H        10.24683358135177    6.94348700607144    1.25346202380423
H        10.98057794410875    5.34690857521019    1.34942214011182
N         3.70044806923236    0.23126489524831    3.20160707899955
N         3.13442068192537   -0.97222881843404    3.38617494342527
C         3.97146072895808   -1.77582086013785    4.05006978793500
H         3.69805385828462   -2.78178276841006    4.29601360885433
C         5.13235203216193   -1.07438062909751    4.31005690567864
H         6.00643993755047   -1.41640888378624    4.82300376557201
C         4.91202227601034    0.18141069679231    3.75773622323318
H         5.57170605904894    1.03206470200790    3.74476325424286
N         1.07717147457025    1.08666145707380    3.31341232736464
N         0.79585637247415   -0.21090408502566    3.47318437280827
C        -0.36355003126026   -0.34255440777243    4.12858038571829
H        -0.76333460976963   -1.30862946827784    4.36176589711051
C        -0.85283795935854    0.91996197670231    4.40065662592065
H        -1.75724273831814    1.17474099753982    4.91210324928302
C         0.09388416076015    1.78859659864798    3.86685090370075
H         0.12276266954127    2.86417134796539    3.85923920437827
N         2.19711390248418    0.25502971669421    0.95343523466224
N         1.75335178501557   -0.93903635212063    1.35549213586124
C         1.32544096971548   -1.64045798744252    0.29926585910589
H         0.93850981643739   -2.63290602284060    0.41100057005493
C         1.49236515356754   -0.86500269223193   -0.83142022655033
H         1.25232865992170   -1.12083551103696   -1.84202240686298
C         2.04499020527092    0.32380928541135   -0.36430655514483
H         2.34100154523223    1.20483286726137   -0.90555402653382
B         1.72787599468667   -1.26033953451488    2.85611542678074
H         1.37860490832978   -2.36386201066269    3.07639966503235

