81
CSD_code = NEYKEH | q = 0 | S = 0 | Stoichiometry = C28H44Cl2N2O4Pt | MND = 6
Pt        7.40119993299687    8.58731434771869    2.29441740071394
Cl        9.00242734478144    7.12222171899775    3.00753481944394
Cl        6.02241413483656    8.04622923646163    4.03374729524342
N         6.05140621031469   10.05161792020903    1.52412614487389
N         8.52430340547779    9.16152675172595    0.57130913105250
C         6.77501349750027   10.85382670968536    0.53433603805523
C         5.81731034938627   11.64565984580926   -0.35938837722649
C         6.60054363658216   12.43407699242733   -1.40582885478002
C         7.45749125951857   11.49744146893864   -2.25108884268630
C         8.41477076194459   10.70286211514586   -1.36662897608446
C         7.63152118631977    9.90465040516021   -0.32153914335850
O         6.61548836976393    7.00834566492821    1.19021962648437
O         4.82766539988799    8.01390968123473    0.32391479800926
C         5.50615845673638    7.01796225143413    0.57271674791109
C         5.06330106598871    5.62125142126589    0.11137233436187
C         6.16532221386673    4.99009355727278   -0.74473466692675
C         5.73667091724094    3.58239408260077   -1.15591037299406
C         5.51761871723925    2.73198843394577    0.09423274762874
C         4.42118389007839    3.36314246883780    0.95100751854202
C         3.12231013341296    3.43809995104253    0.14956730660292
C         3.34516948072333    4.28968145556201   -1.09942542471245
C         3.76628553632999    5.70049287063037   -0.68973774819421
C         4.43893381811826    3.65758965434192   -1.95953677291112
C         4.84593248825904    4.76988527114716    1.36764650465150
O         8.20547587878172   10.04775774342384    3.54000376531818
O         9.80458354106887   10.82918494874292    2.20239848094818
C         9.25207661857217   10.72456810289855    3.29709881003819
C         9.79502028849439   11.45956834386790    4.53152107601111
C        10.21568980441224   10.39117718930054    5.54775644718870
C        10.75090656338477   11.07796763648536    6.80261705950450
C        11.95645570671679   11.94276051031979    6.43694222246501
C        11.53095747820343   13.00349936210280    5.42274001502354
C        10.43870677581286   13.88241833184378    6.03108014333675
C         9.23453542351778   13.01536807452248    6.39698512650277
C         8.69491828684579   12.33346087413338    5.14059501428779
C         9.65640580183393   11.95340226018368    7.41105789012636
C        10.99842886565389   12.32315063139185    4.16222099573203
H         5.59003191575705   10.62154299684229    2.23016390701172
H         5.34651585543808    9.43709898357276    1.04644477330495
H         9.00453183231793    8.39775813960604    0.09994818229595
H         9.22774654022830    9.81046446998872    1.00414496001009
H         7.44679856180784   11.54399456604802    1.06156913151921
H         5.13745157935473   10.94729190359974   -0.85231046605443
H         5.22068732332264   12.32572371460995    0.25145248944890
H         7.24273999212584   13.16237040751569   -0.90651823669557
H         5.90706562351957   12.98111640854602   -2.04530173697930
H         8.02745163143222   12.07310750718630   -2.98104593882795
H         6.81101810138693   10.80802366960496   -2.79783691184659
H         9.01139007584069   10.02324188431440   -1.97797259744683
H         9.09660645579305   11.38320716370511   -0.85175108413930
H         6.96160333472366    9.19408701973877   -0.82343569901246
H         7.09271118630124    4.95311318956481   -0.17030241776820
H         6.33793440069319    5.60209951532920   -1.63497419261947
H         6.52376223357669    3.13272135381155   -1.77209585045677
H         6.44511158074613    2.66896599929449    0.66695614141768
H         5.22934743649500    1.71795913317601   -0.19249360898131
H         4.26382076961791    2.75640510609926    1.84924268140910
H         2.33219490487338    3.87716820429519    0.76256759286941
H         2.80405054214071    2.43342873977290   -0.13853165654369
H         2.41430072233054    4.34599474957764   -1.67520680074746
H         3.91433861124461    6.32381064280277   -1.57455629358772
H         2.98929619474566    6.16908917532926   -0.08318998171004
H         4.13523508305187    2.65474007192216   -2.26832488870303
H         4.59319516456693    4.25299464735471   -2.86280415523942
H         4.07596261814601    5.22759397761561    1.99308113344406
H         5.77088025313892    4.73601990456332    1.94585834687908
H         9.35567720265989    9.76466475908395    5.79047639350901
H        10.98459008659179    9.75013457149743    5.11028588467190
H        11.05332942011166   10.31388635985402    7.52680195136463
H        12.35444240424424   12.42483577392920    7.33297839110257
H        12.74634335293988   11.31894305435697    6.01294461773187
H        12.39450309544799   13.62432775645950    5.15798088292234
H        10.81982997971501   14.38366893451280    6.92372351486452
H        10.14018231243633   14.65349543639851    5.31658526225494
H         8.44837594295439   13.64432501479413    6.83027599622375
H         8.37733526024174   13.08747933630007    4.41441683766939
H         7.83266683386769   11.71076007760849    5.38571836834515
H         8.79677840827259   11.33702525507075    7.68185293507831
H        10.02578669671709   12.43408794606949    8.31996033168070
H        11.77160705663513   11.69939290073482    3.71022079303740
H        10.70476818163253   13.07169129228681    3.42275473700025

