51
CSD_code = NEYPUE | q = 0 | S = 0 | Stoichiometry = C13H20AuCl2F6N3O4S2 | MND = 4
Au        2.78643130017823    5.38564237749388   12.95467020738256
C         4.72551588038488    5.40152691074317   12.85413978778695
C         6.75830299282684    5.40630988496159   12.03384184415554
H         7.54370302926165    5.39383214374755   11.31101948112822
C         6.85347684472958    5.43860137566553   13.38209645371516
H         7.73432290836633    5.46450928824425   13.98406774873869
C         4.97359575722533    5.23363990115861   10.31110799169454
C         3.62805967364524    5.90998039898211   10.05213234401078
H         3.60549652667416    6.91551846988226   10.46402032288631
H         2.78800764941986    5.33639256361311   10.44003798467064
H         3.47319798986176    5.98404455185379    8.97879985700820
C         4.88408464919284    3.73140531835272   10.03493614978929
H         4.54113975941313    3.56991243257965    9.01753817995620
H         4.18302059221481    3.25681700903090   10.71661178222708
H         5.85668397501042    3.25819714092691   10.15428707149853
C         6.01058109774416    5.88368211635064    9.38571859776889
H         6.23042648529248    6.89906823501076    9.70621892298928
H         5.60491788168667    5.92883231192408    8.37957253749209
H         6.93190396504205    5.31042721403881    9.33104871576008
C         5.27020223030613    5.43535489189213   15.33266983903663
C         4.46543444159576    6.68860559408073   15.68210865418300
H         4.86070492300462    7.56243829497162   15.16962589441994
H         4.51630775967015    6.86114605210961   16.75332725344954
H         3.41815801525911    6.57362717199559   15.42344986739125
C         4.49727475581096    4.16155324149622   15.68246814212455
H         3.44787714474535    4.25064875253177   15.42254313859474
H         4.55109708306302    3.99045168299641   16.75374008712730
H         4.91427232049295    3.29791131724007   15.16999986185255
C         6.57882046098933    5.45187661813364   16.12850936537963
H         7.17858660351392    4.56699349967573   15.92895552367298
H         6.33466729567013    5.45051090004219   17.18693614164994
H         7.15810217656105    6.34978943496867   15.92669386522969
C        -0.52286402241082    3.59663003014312   14.67026520426752
C        -0.61079030626234    7.04195515318681   11.27704015752007
N         5.43169553816734    5.39022173809756   11.71145572178168
N         5.58500645247401    5.43351432647336   13.88566715296738
N         0.76948247155586    5.38662116022641   12.96667821668262
O         1.37157916185050    5.36095743745285   15.28816507316780
O        -0.84502228711419    6.26202400100048   14.71755307519835
O         0.31891249228564    4.67188079039752   10.63294334395156
O        -1.50661594580833    4.72625353779158   12.30556263227927
S         0.19076154886558    5.33409685825171   14.47129121759074
S        -0.30258294469855    5.25204993130602   11.77271481652391
Cl        2.77192578713758    7.65816255063556   12.91885013003103
Cl        2.80482832663103    3.11893535718312   12.87825058126724
F        -1.69753043052223    7.11940244808646   10.51733342120707
F        -0.75946118765045    7.84798088484560   12.31468632846782
F         0.42592569550484    7.47022674779670   10.55792217494198
F        -0.19189780536199    2.80315272469030   13.66185918280277
F        -0.00546246487577    3.06783828803596   15.78107620543681
F        -1.83326424859713    3.61984893773296   14.80679174907237

