49
CSD_code = NEYPOY | q = 0 | S = 0 | Stoichiometry = C13H20AuF6N3O4S2 | MND = 2
Au        0.82190777754813    5.44492736335094    4.99716194640232
C         0.10482506214282    5.27633659283344    3.15070971693424
C        -0.92459008046177    5.72830702128664    1.24023261143399
H        -1.48222122332510    6.27199699625926    0.51046995601448
C        -0.40503580609309    4.48356705613290    1.14454144833753
H        -0.45603662956622    3.80499400187625    0.32231274082049
C         0.92304740207583    2.95563815375218    2.63742433999997
C         0.27090965113777    2.29389621875934    3.85497581344470
H         0.51547144046743    2.81400742941571    4.77672578699486
H         0.63065342835985    1.27340332664906    3.94711020221747
H        -0.81019128728603    2.26890922592427    3.73796116798943
C         0.81552378119020    1.99772537695905    1.44676637668464
H        -0.21989117776679    1.73970124514797    1.23757897731204
H         1.34306884025506    1.08039736332815    1.69196992148404
H         1.27700146089828    2.41514928642128    0.55483920845849
C         2.40293439138044    3.24564609931355    2.89533805634508
H         2.84982525991481    3.74014117597911    2.03516750505581
H         2.92783805831580    2.31228993591465    3.07423596716821
H         2.52581409137551    3.87787276866606    3.77045454513979
C        -0.99480346735356    7.53245808461343    2.99160435626097
C         0.25721933413908    8.33471477102519    3.35895972625880
H        -0.01163254956669    9.37691263836146    3.50344637227403
H         0.99194981077978    8.27598096185797    2.55899190316502
H         0.70930903355173    7.98125387123287    4.28130655203578
C        -1.91239497044038    7.35626409154938    4.20341608115817
H        -1.40221841010763    6.82559972528327    5.00286081837965
H        -2.80628506940045    6.80061174747895    3.92713333985176
H        -2.20756401328284    8.33117963669505    4.57898121787974
C        -1.76147433667718    8.29990265570767    1.90980485902201
H        -2.04569876693527    9.26909977659172    2.30948133217508
H        -2.67366034945608    7.78255023228668    1.62192872486127
H        -1.14344281037755    8.46993885811727    1.03134185374488
C        -0.36694148513438    6.82856672340680    8.48945578444030
C         3.65339137508540    4.53029048398850    8.21308306950735
N        -0.60527917130849    6.20661196090398    2.47990764437886
N         0.22629303511448    4.21587468959532    2.32665943116712
N         1.53390720610045    5.64685776582398    6.88979447202305
O         1.22426326970596    8.08944196145027    6.80495833361236
O         2.30246212168174    7.07800506888070    8.77574745814478
O         1.09193391113795    4.43451250579627    9.02746595860423
O         1.70872904677571    3.19394792961525    6.99664428692152
S         1.35834285939383    7.00212978121125    7.71925846842517
S         1.81452759319311    4.36534297452608    7.80632045946071
F        -0.36382677873480    6.61997554305300    9.79045433508111
F        -1.04616343847453    5.84685001756445    7.88428758225372
F        -1.05505493825024    7.95383118444171    8.26216333158972
F         4.22742216064871    5.41921870888129    7.40235103464756
F         4.26004447170815    3.35894547033585    7.99590190542334
F         3.88129088598171    4.87202354174882    9.46681301905889

