66
CSD_code = NEYQUE | q = 0 | S = 0 | Stoichiometry = C21H41ClIrOP | MND = 8
Ir        9.80002277396725    2.20164763092217   10.87053096336095
Cl        7.85286376817372    1.69283920738997    9.63019440569906
P        10.12221198488720    3.71424626753560    9.17859441274857
O         6.77277406104894    7.20531372947202   13.69711739322860
C        11.73458406936725    1.74906672518482   11.87762076856024
C        11.73510040677345    0.88218336485372   10.71385051420363
C        10.63737550516818    0.02535619370335   10.81378408250059
C         9.93820104363286    0.32847019447563   12.04533152998329
C        10.68590351012355    1.31315725961471   12.74503979980046
C        12.87826465592391    2.62769306324065   12.27918247859388
C        12.83323569134938    0.83121224155184    9.69888589091330
C        10.23973593706202   -1.08040675201332    9.89246116556507
C         8.82752022920690   -0.51042973881833   12.59324528835972
C        10.50887026480013    1.70438751749629   14.17783984729632
C        11.59137863514626    4.82063715012136    9.19568340953932
C        10.35726568629089    2.86304348038396    7.57380962898491
C         8.79262142891009    4.89027487612802    8.72710171007937
C         8.63878558478742    3.61403206264133   11.92848984129602
C         9.39472997584917    4.82552812439793   12.45611239165865
C         8.55841886675351    5.66741672197835   13.42762028510484
C         7.33928568556307    6.30611562216820   12.76761565281915
C         5.42790918824301    7.62938038099107   13.48245019467791
C         4.43533509942776    6.48662950919475   13.74263562495279
C         5.21631521958908    8.73547175023534   14.52115344092977
C         5.21833796708938    8.19644657061304   12.07294793432035
H        13.62612252480960    2.04255491231360   12.81927085472283
H        13.36057425049445    3.06996851306415   11.41019888683404
H        12.54618714327948    3.43319768971149   12.93075929949566
H        13.68183160083906    0.27360277229257   10.10174153602241
H        12.50675376103288    0.33511261079199    8.78704812434214
H        13.18578710725206    1.82919625203375    9.44122928384003
H         9.21315581201237   -0.94159410451568    9.55263798902621
H        10.88652950388874   -1.12248831609829    9.01909598323026
H        10.29519124237910   -2.03846856614109   10.41199920153576
H         8.32128997725137   -0.00633480417650   13.41341311834008
H         8.09396362176641   -0.72577050246819   11.81828952215744
H         9.22138507116813   -1.45995957992644   12.96318722527390
H        11.07158298409719    1.01592866542740   14.81215331990090
H        10.87532393067132    2.71084775492217   14.36536364574486
H         9.46386954879607    1.65889726784487   14.47623788624095
H        12.49502727288509    4.21776630101374    9.22952809815356
H        11.61101413485529    5.44222102430669    8.30221903117360
H        11.56572502945944    5.45355916197987   10.07829960226606
H         9.47362270789492    2.25685369651559    7.38635325136555
H        10.49047906334854    3.58554292228305    6.76977457673186
H        11.22699616227921    2.21307621742277    7.62637414855679
H         8.63692587364345    5.60877847781315    9.52725249675592
H         9.05684080869409    5.41269592174995    7.80851881887170
H         7.87832149214880    4.31982415820143    8.57953774291025
H         7.79116725116937    3.95270427089549   11.32733796229938
H         8.22811922185065    3.06125382702648   12.77941981647173
H        10.29211090645506    4.50434104521483   12.98612753107394
H         9.71155296217454    5.45941207742370   11.62450090434803
H         8.22086271928771    5.04857975453139   14.26004771335368
H         9.17200075732559    6.47139660600944   13.83918553874353
H         6.62249675377914    5.53035937463139   12.47927252950784
H         7.65282335344571    6.84416287915796   11.85890546395739
H         3.41951390272473    6.87183975824458   13.73697163968731
H         4.51078126146504    5.71430718940469   12.98106861121926
H         4.63843078234656    6.03947363665032   14.71263951825451
H         5.40777056821730    8.34124557922238   15.51510201706887
H         5.91114476782552    9.55025526918019   14.33722175282461
H         4.19947364863835    9.11448182961173   14.47501331921317
H         5.96224547685169    8.96232367604022   11.86496844969971
H         5.29835684294168    7.41533522111125   11.32054429455806
H         4.22960095948833    8.64150640582124   12.00209063903840

