35
CSD_code = NEYRER | q = 0 | S = 0 | Stoichiometry = C14H8CdN8O4 | MND = 6
C         1.17019486302084    8.59355884964428    5.13103220690789
C         1.74607279708990    7.75436801863454    4.12946964629297
C         1.62969282652669    8.10180420506162    2.78242265869065
H         1.05708451558201    8.98376778194628    2.53700091143273
C         2.20277940457691    7.32998401995306    1.79881190420026
H         2.08909373151087    7.60539792789312    0.76185681218246
C         3.02202939295253    6.23027329117839    2.13975414790238
H         3.50933297524008    5.67416212653059    1.35307414912090
C         3.19690734148098    5.87440613051218    3.43789773454021
H         3.82154356148668    5.04128603767152    3.72366210154816
C         2.55770455180673    6.59603710713981    4.51415707099756
C         0.87412652414728    4.20632088477578    5.10760011855638
C         0.32974286793548    5.05532422024965    4.09619370664250
C         0.49675302513037    4.72077164787629    2.75116939113447
H         1.08001265775060    3.84203485408020    2.51968013675626
C        -0.04003416797188    5.50048011795417    1.75340493128704
H         0.11238093952557    5.23397534949972    0.71911345680298
C        -0.87129335038035    6.59717350374592    2.07341260646527
H        -1.32832191289816    7.16131896181133    1.27435075679741
C        -1.09512034181236    6.94037921044196    3.36734943635477
H        -1.73015360165528    7.77099348193730    3.63686460748821
C        -0.49907564288078    6.20782493033036    4.46110093389956
Cd        0.98614949040326    6.38755077712855    7.10682248644269
N         1.07358355549730    8.33000072750406    6.46485655041909
N         0.45328205284546    9.35303342204865    6.98804524186877
N         0.20932245371551   10.21917728051495    6.04887003614910
N         0.61047517229664    9.79585330232105    4.90488758895715
N         0.91974855449789    4.44856031344343    6.44857433809160
N         1.52864340160091    3.42181358355996    6.97788629420238
N         1.81424990502544    2.57382313716552    6.03432687365977
N         1.45147183140110    3.01230335748537    4.88276619954249
O         2.25597542929817    6.74052712225149    9.42108364523613
O         1.05810268643523    6.38357766365241    9.25356052804559
O         2.73896962507706    6.25867495320042    5.70365179813684
O        -0.73012711625476    6.53346170085187    5.64478899324071

