65
CSD_code = NEYRIT | q = 0 | S = 0 | Stoichiometry = C24H38NiP2 | MND = 4
Ni        0.00017129902121    8.29423950070284    3.91340915508017
P         0.96771707889304    6.81334279799138    2.51580531957993
C         1.22031925261740    8.17353071823139    5.39614242365192
C         0.72676518356183    8.25954960177049    6.71768658888478
C         1.59029285146173    8.29559051249018    7.80160127792667
H         1.19659440907734    8.36101844929451    8.80636199016693
C         2.95862385657111    8.26496838120060    7.59097089834789
H         3.63755732194902    8.29039513798299    8.43203835383248
C         3.45754074666478    8.21177855032481    6.30283155871989
H         4.52684034889283    8.19982504396697    6.13761228547742
C         2.59658191038953    8.16368611030867    5.21139813716241
H         3.02936427909885    8.12189214313787    4.21592600918183
C         1.89204621853364    5.43104237304002    3.33711494325626
H         2.85087308121285    5.84375260328576    3.66034222450755
H         1.32980540953609    5.21443579950821    4.25095878427008
C         2.12617482099047    4.15077458425720    2.54632317812520
H         2.69074590011722    3.44898923242699    3.15847354904638
H         2.69968151198995    4.33781440173821    1.64125175106513
H         1.18926845396243    3.67182944481840    2.27240506655285
C         1.90885098874714    7.04304074755206    0.93139812081223
H         2.00618721504022    6.08176749446686    0.42128866809783
H         1.30003346580765    7.69174400060168    0.29343330227150
C         3.27625494927360    7.67524813403891    1.15311729138174
H         3.76835819763431    7.87250295719512    0.20145849666386
H         3.91627069946252    7.01562042906579    1.73565004545696
H         3.17815069879146    8.61791894738091    1.68944130574122
C        -0.50560409074198    5.93211479396195    1.82537863595884
H        -1.01153783642098    6.63741648666347    1.15969193033032
H        -0.20170297259295    5.06982453160770    1.22639889280605
C        -1.44458799027602    5.52844877359893    2.95503765001193
H        -2.41828018465173    5.22498680693577    2.57260653961910
H        -1.58146047175055    6.37528643126286    3.63791551800608
H        -1.03090413976531    4.70300357713915    3.53061382596452
P        -0.96786568660099    9.77468509022676    2.51573351762568
C        -1.22006104200768    8.41450311746199    5.39611405038478
C        -0.72654297439247    8.32833084328553    6.71766778571021
C        -1.59009306297219    8.29215244513205    7.80156007822264
H        -1.19641711913939    8.22664089200349    8.80632525257032
C        -2.95842196534464    8.32274873092448    7.59091247142773
H        -3.63737044865286    8.29723495687688    8.43196912246503
C        -3.45730675524045    8.37603090379492    6.30276323786091
H        -4.52660893931612    8.38794626439174    6.13753775518816
C        -2.59632520853779    8.42428238054557    5.21135327236986
H        -3.02911216273147    8.46613979074146    4.21588186594145
C        -1.89227236278142   11.15698512381969    3.33694967790078
H        -2.85111632401223   10.74426377962539    3.66011521930259
H        -1.33010289655783   11.37361621924443    4.25082859959257
C        -2.12634303702565   12.43723781069169    2.54612161032056
H        -2.69100893106274   13.13902978553602    3.15817948400038
H        -2.69972124337810   12.25015132425425    1.64098167598011
H        -1.18940791168196   12.91618880148576    2.27231474121600
C        -1.90886324213015    9.54491171390700    0.93126913571894
H        -2.00613888359732   10.50614615560640    0.42106626650897
H        -1.29999330853573    8.89615203872774    0.29341638947566
C        -3.27627346222766    8.91272213337449    1.15295932470275
H        -3.76834766050506    8.71541652349427    0.20129820899556
H        -3.91629217679660    9.57239312713316    1.73543542676232
H        -3.17818739416841    7.97008408503925    1.68934694211827
C         0.50548769428219   10.65585893060622    1.82533783923330
H         1.01135749956671    9.95055848409442    1.15959890848671
H         0.20166929162696   11.51823811842828    1.22644949417294
C         1.44447302991602   11.05925075879351    2.95507285226063
H         2.41821979739724   11.36261072797317    2.57270975925172
H         1.58110490579498   10.21223742835590    3.63779315505239
H         1.03088951771473   11.88467201647846    3.53075316122335

