115
CSD_code = NEYTUH | q = -1 | S = 0 | Stoichiometry = C54H54N6Ta(1-) | MND = 6
Ta       11.74538536485206    6.77994079962199    6.47718423032082
N        12.72164215921354    9.45397859396298    4.92993564508112
C        12.33505570076159    8.43429237464288    5.39077971006045
C        13.15524876677886   10.68359722999987    4.60812502837893
C        13.98525160757038   10.85881303470445    3.48377357682683
C        14.36199593691634    9.66358165745014    2.66240393328301
H        14.96337440304321    9.95547049803519    1.80404588998635
H        13.46796462616841    9.14731446955724    2.31155801964852
H        14.92819802544857    8.95242261022264    3.26443081160427
C        14.42723238500998   12.13065337038976    3.17757692396752
H        15.06678741766262   12.27620149657147    2.31682911224023
C        14.06465169363262   13.22035121570043    3.95627999585707
H        14.42075155753031   14.20893032578691    3.70375620220220
C        13.24470958699108   13.03802260086145    5.06110375711871
H        12.96519891080527   13.88950329740664    5.66728379466424
C        12.77862841782007   11.78449685816607    5.40505179544036
C        11.89199235230246   11.56064036947699    6.59084243005591
H        11.82329348679755   12.45676087755090    7.20385355628943
H        12.26880630408230   10.73634900858736    7.19715163859412
H        10.88674476970614   11.28405826671658    6.26927398116035
N         8.94063948482190    6.29105985056509    4.93091653519751
N        13.57349288781517    4.59653867879002    4.93224472383074
N        10.76729716909827    4.10576580646843    8.02254245195755
N        14.54968784874944    7.27248334484147    8.02322505281244
N         9.91890829470273    8.96322463895865    8.02467110507389
C        10.01737627175363    6.46605628541557    5.39095318072749
C        12.88403057602817    5.44240755131116    5.39134423466975
C        11.15415149735441    5.12607178483922    7.56320438276204
C        13.47297805275221    7.09777071079103    7.56304716509057
C        10.60928203942042    8.11915259210144    7.56359216976630
C         7.65849987712100    6.05312720672119    4.60995996937646
C        14.42149906963919    3.60568265753911    4.61194408056064
C        10.33186546791578    2.87616774230821    8.34191222011429
C        15.83177198796471    7.51167425388648    8.34355012124301
C         9.07164009007350    9.95452312002230    8.34563477081101
C         7.09179452897806    6.68488127817469    3.48593676699860
C        14.15970782165590    2.79935780526470    3.48720117201038
C         9.50188684903500    2.70009126945568    9.46610370198243
C        16.39926065791922    6.88142818056452    9.46805169506262
C         9.33555197085445   10.76142642085063    9.46945394766974
C         7.93885239443632    7.60840180130184    2.66448988700188
C        12.93752729921401    3.07102989103528    2.66400914236886
C         9.12704890807754    3.89442557712774   10.28965875449225
C        15.55272493948492    5.95906310490913   10.29133182508937
C        10.55866009139256   10.48938145629806   10.29114346447616
H         7.38534749923256    7.98379725979717    1.80638853741681
H        12.89064350108735    2.40417479054265    1.80567718623993
H         8.52573870121824    3.60186797226037   11.14782842144170
H        16.10671436583528    5.58500666155999   11.14970451103371
H        10.60690055966305   11.15632702812361   11.14932912809818
H         8.83256635454053    7.09184489895235    2.31326869815636
H        12.93826845964838    4.10337084917875    2.31302773413454
H        10.02187987239847    4.40903867365849   10.64089189843546
H        14.65919236514456    6.47614049643471   10.64225935891862
H        10.55790705212856    9.45708600028955   10.64225590892576
H         8.27232370315175    8.45400674046917    3.26659489527061
H        12.03763630993617    2.93662608480684    3.26476151046801
H         8.56141517109159    4.60727529789187    9.68908633767317
H        15.21896134366977    5.11255190527035    9.69067404073537
H        11.45787630786233   10.62330887081650    9.68926858329513
C         5.76908864131114    6.43264924806700    3.18018756591400
C        15.04030389435352    1.78037388749552    3.18242615154417
C         9.05808291082004    1.42834693238595    9.76997384128957
C        17.72219399975620    7.13400886039745    9.77253537735448
C         8.45612238286643   11.78124955816070    9.77477913370131
H         5.32331372933176    6.91409049641181    2.31960961947310
H        14.84770734519735    1.15376059463369    2.32140521981373
H         8.41850909191326    1.28213457661740   10.63058391419827
H        18.16863397037883    6.65350887801083   10.63329190843749
H         8.65039111831661   12.40831056700889   10.63509599963321
C         5.00635336342394    5.57428930420994    3.95912463319891
C        16.16396418194752    1.54914108481883    3.96295517560774
C         9.41884527434535    0.33961210983574    8.98907157639364
C        18.48434356271034    7.99147614005196    8.99204170975031
C         7.33149912527379   12.01270505042450    8.99572281408714
H         3.97199935071562    5.38900082225388    3.70685746341184
H        16.84218902323916    0.74624512183423    3.71151433876925
H         9.06134130405948   -0.64891364305657    9.23978897654370
H        19.51895953766586    8.17686056390077    9.24315931126977
H         6.65423811358330   12.81629945093441    9.24753361701331
C         5.57408488974101    4.95514975211308    5.06390446507936
C        16.41446557962864    2.35021537106649    5.06826594643272
C        10.23870489637784    0.52283275458111    7.88432972009717
C        17.91564833170178    8.60968940518482    7.88724587731399
C         7.07874039316730   11.21089254302293    7.89146053516593
H         4.97613479894347    4.28788433375038    5.67037959373891
H        17.29048875899987    2.16614534927469    5.67596629014383
H        10.51673726616736   -0.32788004568233    7.27639953494566
H        18.51306779468773    9.27647038172065    7.27971784101742
H         6.20185991195912   11.39503664931317    7.28501962525534
C         6.89298091567714    5.17735901657878    5.40740563341302
C        15.56171794697286    3.38089746166745    5.41084488957319
C        10.70657657566116    1.77631308699394    7.54266953343305
C        16.59649698361552    8.38709335421223    7.54497093980872
C         7.93025793851378   10.17934803129326    7.54839452208803
C         7.52997848436760    4.52137272581624    6.59327133382226
C        15.80934526719101    4.26037844479701    6.59724925458157
C        11.59305654200280    2.00115582052121    6.35693762809503
C        15.95845049910488    9.04233110141708    6.35926408460037
C         7.68004577847761    9.29895576713870    6.36322037778371
H         6.78800211186646    4.01473425236178    7.20672680334363
H        16.61861919617539    3.87146483878827    7.21154488806097
H        11.66011876660573    1.10611189223233    5.74217022286274
H        16.69984296243114    9.54885230421849    5.74500728816524
H         6.87009458428262    9.68788958999111    5.74983259964474
H         8.05624839238977    5.25965987401097    7.19911404359833
H        14.90605968967035    4.34625166089198    7.20204841248961
H        11.21722402993129    2.82719735433728    5.75238386692550
H        15.43186559977002    8.30364729995355    5.75419079553751
H         8.58229079564179    9.21176724538341    5.75707875002528
H         8.27139492573968    3.78830325116407    6.27181456048440
H        16.07322130592815    5.26926042367966    6.27638985172992
H        12.59887368079393    2.27557944626216    6.67858096084158
H        15.21712468941259    9.77539299503337    6.68095961288097
H         7.41587867922577    8.29060116750717    6.68550206546251

