43
CSD_code = NEYTAP | q = 0 | S = 0 | Stoichiometry = C19H19AgN2O2 | MND = 2
Ag       -1.92151612499975    0.52682375760181    5.81959295709608
C        -2.61258098141808    1.78813691392878    7.44267634476798
N        -1.80785825762242    2.15052333678872    8.46095291981592
C        -0.45150618643767    1.69333266356857    8.61049627896432
H        -0.39609334254634    0.86742572893984    9.32159626584491
H         0.17829152769604    2.50949056403368    8.96312579328900
H        -0.08812552068372    1.33690334170142    7.64208376644507
C        -2.44471702544275    3.03562509879331    9.29659068471097
C        -1.85602369565094    3.65979116968379   10.47880431069778
C        -1.19438334103882    2.90875738263521   11.44719072389962
H        -1.11526433257908    1.83774493841908   11.33892932302394
C        -0.66449269136675    3.52502131957925   12.56610406752836
H        -0.15571144182039    2.93229552556090   13.31170121880591
C        -0.78862124082343    4.89359329868546   12.73381380181354
H        -0.37277600294179    5.37187261166552   13.60772236687744
C        -1.45154253086000    5.64659230667573   11.77818253735655
H        -1.55291198980944    6.71402137005398   11.90514537602507
C        -1.98251787405748    5.03671097409984   10.65819166792347
H        -2.49470133803836    5.62374733065913    9.91051083291793
C        -3.69469814730584    3.24111498460346    8.76467824062665
C        -4.77733990474732    4.06820017600822    9.28953397828980
C        -5.09246790642776    4.00091605975436   10.64629664056993
H        -4.54331676736389    3.32506700672279   11.28466493695521
C        -6.10162438077310    4.78637386299526   11.16853102050359
H        -6.33852331172414    4.72394758191764   12.22006621855526
C        -6.80994832499668    5.64888094962757   10.34740949394226
H        -7.59951689782514    6.26074235030627   10.75672733720774
C        -6.49840270473396    5.72695728827820    9.00077723970791
H        -7.04094751744191    6.40424855974758    8.35803693639470
C        -5.48859975364268    4.94373592443114    8.47231823386021
H        -5.23462001024970    5.03284159840399    7.42687048870854
N        -3.76600663613315    2.45938620077506    7.63574303222124
C        -4.92002182581566    2.31881327952445    6.79129655550589
H        -4.96517674135690    3.12034702978503    6.05182648783802
H        -5.82821589397219    2.33841620246749    7.39340506152317
H        -4.84678538987351    1.36738991252186    6.26207070546732
O        -1.25904115727584   -0.76681790964702    4.17077966677271
C        -0.02930135607432   -0.70634014293904    4.43469096592651
O         0.43263568207825   -0.04035707387988    5.37935709044064
C         0.92159029125368   -1.47812776802296    3.53388287774436
H         0.42222589533190   -2.35441952125770    3.13053522486472
H         1.81039168235459   -1.76259589804788    4.08986987628456
H         1.21506346715753   -0.83113028714122    2.70922045228471

