47
CSD_code = NEYVIY | q = 0 | S = 0 | Stoichiometry = C20H17N4O5V | MND = 6
V         8.89771842299317    5.91793420274520    2.37004470298579
O         8.18190651166624    5.76269947608508    1.03235835181437
O         8.72889962196375    4.48823750627815    3.30396138754564
C         9.42222275614115    4.13969666048971    4.33685807370627
C         9.37667156219489    2.86963210430711    4.90317272311922
H         8.72253527815806    2.13060350013956    4.46390822210204
C        10.16075357239135    2.55318243636905    6.01451302848594
H        10.09807066726774    1.55607595730226    6.42542337569932
C        11.00635062083420    3.47125157134289    6.58469755917213
H        11.61543866774060    3.21125391274935    7.43741592060764
C        11.09262252012983    4.77371797101687    6.05476708132097
C        11.93965192299026    5.78177405605654    6.55950695826422
H        12.57245483193326    5.56640609818196    7.40906774150573
C        11.94766697625426    7.01517756571630    5.96324606727070
H        12.58684261083651    7.80725554726981    6.32146768465623
C        11.09967628887330    7.25024130186328    4.86899699555788
H        11.07819148147381    8.22345974587170    4.39067071319893
N        10.30234082696104    6.33737942324032    4.37432386257662
C        10.29145125539572    5.11421796979546    4.93420306306541
O        10.66165861558953    5.34437526995127    1.92567417851451
C        11.41969598406870    6.22855505414368    1.42912442953613
N        10.99673558541011    7.48061135023482    1.31233680478316
N         9.73067872683656    7.58900158482782    1.72227780960839
C         9.05517152210640    8.66842009456364    1.45948117927985
C         7.71337281773486    8.81549205441977    1.98728816270229
N         7.20713277507319    8.01519253052272    2.86714658723423
O         7.87771277788956    6.98125746908727    3.24862875106060
C         9.68865950125891    9.77389169895075    0.66660211047850
H        10.24471709760516   10.43891766279767    1.32786880861753
H         8.94234738153762   10.35484953044178    0.13620722705359
H        10.38995426046819    9.34437791380584   -0.04661112944994
C         6.86574427119812    9.99086467918954    1.60896254149184
H         5.92346784010176    9.92429324398113    2.14391078651178
H         6.66361070908181    9.98265114734087    0.53949228225231
H         7.35587790352570   10.92798171705278    1.86672663475225
C        12.77260775888456    5.88743555320106    0.97748672031313
C        13.17705588191303    4.55099550353228    1.05327611772885
H        12.46773043006060    3.83046298590977    1.43438765026868
C        14.43554250913611    4.16636984047343    0.64880774191509
H        14.73371482053647    3.13131202922638    0.70946966236138
C        15.31879541697825    5.12144534577977    0.15877424680111
H        16.30722490162070    4.82790260768726   -0.16165858765152
C        14.94217533555466    6.44478336809548    0.07671000391408
H        15.61562000373202    7.19727193434067   -0.30237618733545
C        13.66908791914461    6.85197499936549    0.47997020646697
O        13.36275381304231    8.15316054368527    0.38017616803417
H        12.43618704371105    8.27415528057073    0.68455558010089

