77
CSD_code = NEYWET | q = 0 | S = 0 | Stoichiometry = C28H46ClPZr | MND = 12
Zr        1.92970537729014    2.53767629731674    3.10990761871461
P         1.61428404664140    4.10203267275558    5.14718472485944
Cl       -0.02475645123067    3.18194194414887    1.96559462003540
C         0.50526907355770    5.49993233637641    4.54092368259282
C        -0.97410171680196    5.12630889420702    4.60851614940208
C        -1.83430129958179    6.26234888626972    4.06215901721348
C        -1.59381496548736    7.54511290512145    4.85213199940339
C        -0.11529744893944    7.91956689591663    4.82063852163921
C         0.74017206020316    6.77454216745287    5.35526503999061
C         2.77590215718348    4.25593066434621    1.46074925611063
C         3.09202006508827    2.96606540242220    0.95113642211108
C         4.06794874439989    2.37090334808923    1.80693439135196
C         4.29211869359888    3.27473388351326    2.88591049874576
C         3.52074398544346    4.45079430713361    2.65346108754889
C         1.98938641080335    5.30736536349377    0.72506318694273
C         2.91620646209115    6.14266003880106   -0.16423779119459
C         2.56067737781192    2.40883327652050   -0.34273354412487
C         5.04326880951032    1.30665912628918    1.37833004367799
C         5.30561717289172    3.15440517981298    3.99008460987107
C         3.74897458692487    5.74770385131539    3.37415445083986
C         0.45735024781325    0.90260058463226    4.21704128469377
C         1.65970965884227    0.88718371956471    4.98442210114788
C         2.69750442251113    0.34980959252458    4.16977230748354
C         2.13237363187100    0.01117034306871    2.90662898655015
C         0.75478097455086    0.35947501438665    2.93672980571123
C        -0.92348391914833    1.25041507893093    4.70040298165810
C         1.79490140956315    1.12887693315558    6.46371534918054
C         4.02144448844919   -0.11627329798662    4.71706247688617
C         3.91814613592634   -1.55921024685644    5.22651182894661
C         2.71033208371880   -0.90833115024256    1.86570797798492
C        -0.22925140032982    0.00757544188871    1.85640598712132
H         0.61609918572293    3.56639847881162    5.96188579342458
H         0.76976249265710    5.69142153798081    3.49125949684389
H        -1.24848612100920    4.93361663709147    5.65044983522865
H        -1.15453049189219    4.21776063311239    4.03003070337724
H        -2.88922829405378    5.98369519757274    4.11525324439045
H        -1.58507718133243    6.42449834609724    3.01102592237929
H        -2.19404355817027    8.35856170094192    4.43781343123944
H        -1.90496158539482    7.39430950736363    5.88884671584083
H         0.05538656099659    8.82014628782124    5.41547788548413
H         0.17905447245773    8.13849350416059    3.79076172094097
H         0.48285291138518    6.57672538451948    6.39919323017241
H         1.79641866822519    7.05128167135405    5.32357189348157
H         1.47995534743848    5.97092921730942    1.43000474609212
H         1.22240098175106    4.83982881501363    0.10353624491744
H         2.34800509820488    6.89636028444741   -0.70481867484190
H         3.42256355059654    5.50660256131589   -0.88630731577329
H         3.67198491809563    6.64123419803511    0.43776275564651
H         1.47106805830952    2.49606846193704   -0.38186733964042
H         2.82898565683377    1.35999016870400   -0.46601337942790
H         2.96784425969744    2.95618380781786   -1.19590728378511
H         5.37509483746477    0.67672964762671    2.20055281924733
H         5.93208085788816    1.79719088085302    0.97072695759928
H         4.63592463955390    0.67359682991826    0.59496680291739
H         4.83200904767014    3.29420516309726    4.96728340781801
H         6.07320092550333    3.92433644150217    3.88407458150000
H         5.79932583031117    2.18558503410778    3.97449031049944
H         3.67931054812409    5.62431969245348    4.45742673244609
H         3.03361634520819    6.50489878482753    3.06265358484324
H         4.75291525429918    6.11675029731511    3.14790216393275
H        -0.88813137113950    1.90251522202512    5.57239412922626
H        -1.46635014664620    0.34308566506276    4.97718270715932
H        -1.49169980810436    1.75585398753890    3.91800443839635
H         0.83053656719437    1.36324773785234    6.90841510801144
H         2.48211095959405    1.95103362305512    6.68647175682693
H         2.17645066930129    0.23270215231439    6.95529536627278
H         4.33230032069375    0.53349423442855    5.53953561989844
H         4.80123529991547   -0.08479973646350    3.95329457730773
H         4.86807165737079   -1.88533932381016    5.64530814843523
H         3.64847663796371   -2.22809611850895    4.41317327349563
H         3.15448218473166   -1.64068455717297    5.99540381412578
H         3.76821099810645   -1.09066885754651    2.03120490684558
H         2.56722567246197   -0.52633531920261    0.85396414859487
H         2.19509288113392   -1.87136844686972    1.91798205335850
H         0.17511510773146    0.22654955969728    0.86618485904767
H        -1.15815620946319    0.56157591496522    1.97400236984516
H        -0.46163551258502   -1.06029436480137    1.89587066321585

