99
CSD_code = NEYWOE | q = 0 | S = 0 | Stoichiometry = C37H54Cl2N2O3Zr | MND = 6
Zr       -6.19060385671114   -4.45547733991810   -6.13112634071805
Cl       -5.78926433231082   -5.07715425163733   -8.38268566750781
Cl       -7.41145184709811   -2.42391963715177   -6.21896793820200
O        -7.70259620293742   -5.61761031020748   -5.98734498576568
O        -4.50875929164393   -3.54278234205542   -6.09189431953576
O        -5.08822217060552   -6.31782753816034   -5.46937857706916
N        -7.25993312993411   -4.64551228553640   -2.98747020798732
N        -5.99762871510094   -2.94204736077036   -3.24752028548878
C        -8.94844257305118   -5.52304719243459   -5.53733804418244
C       -10.08243920525165   -5.41011330645448   -6.37665724935831
C       -11.32479454775670   -5.25334941014868   -5.77991999853232
C       -11.53281798763381   -5.25341158137983   -4.40566942361953
C       -10.42585265030159   -5.46865641361999   -3.60005300323899
C        -9.16527318985945   -5.61570992555401   -4.14731618989604
C        -7.97534275089377   -5.87442531013580   -3.25414176792973
C        -6.32687120526607   -4.12148425612297   -3.81208432767092
C        -7.51100853161357   -3.81037475496315   -1.93540162159632
C        -6.70414138014333   -2.73263531317423   -2.09922658643887
C        -5.04533211317277   -2.01315140311583   -3.81970824124830
C        -3.48155380390505   -3.30552212559148   -5.29961572785449
C        -2.14593664189279   -3.64925956417144   -5.63932301910801
C        -1.16657561866135   -3.49205423138267   -4.67463631095491
C        -1.39965912107255   -2.95608339032666   -3.40923280316463
C        -2.67631930986893   -2.48903751459627   -3.14824374165275
C        -3.69618124632406   -2.64102591494396   -4.07385465393060
C        -9.94625001861216   -5.46937001449380   -7.89612278792411
C        -9.22485322777872   -4.21130181893778   -8.39428542668748
C        -9.13948239356928   -6.71527314542578   -8.29336786165391
C       -11.30253295025621   -5.55112063601515   -8.60839021327030
C       -12.90199573338717   -5.05814873398834   -3.77151450867247
C       -13.27690806011374   -6.32030839278533   -2.98157542882303
C       -14.00212323507009   -4.79775229630214   -4.80369728647522
C       -12.84463164682995   -3.85083469655970   -2.82473428898095
C        -1.80865615318656   -4.12221902058850   -7.05047492922362
C        -0.29851942779265   -4.22252673665753   -7.29615444780543
C        -2.38171041212657   -3.11690065707798   -8.06031112311268
C        -2.42828857435298   -5.50146261241048   -7.30325852437479
C        -0.25375958920985   -2.86299058373836   -2.41325598834568
C         0.86493591772640   -1.99198670575145   -3.00136291380720
C         0.28148300897414   -4.27475123892031   -2.13347611674418
C        -0.68523394749747   -2.24601203426370   -1.07998562304370
C        -4.14383209595593   -6.57957817181562   -4.41798435517197
C        -3.66516913028037   -8.01728113758363   -4.61690204438636
C        -4.87052120395521   -8.66358453343311   -5.29549114615842
C        -5.34924383204725   -7.53271351967340   -6.19852386820882
H       -12.17807432975768   -5.12867832489921   -6.41967961125980
H       -10.53101329989938   -5.53406277868754   -2.52611433832996
H        -7.28808761334209   -6.56637822755268   -3.75892317720554
H        -8.30003499266641   -6.30407889459355   -2.30197437963573
H        -8.22461535358182   -4.03999874251165   -1.17129723292144
H        -6.58923942649236   -1.85332732430565   -1.49926334622340
H        -5.45521534322297   -1.65037697294813   -4.77467012415694
H        -4.94144026710403   -1.17141929716877   -3.13047840712371
H        -0.15980720288953   -3.78741056480897   -4.91491673284920
H        -2.90349692042354   -1.98110983714993   -2.22395664520668
H        -8.19751989237594   -4.18628915085091   -8.02265304181477
H        -9.19201433752209   -4.20540533601177   -9.48251983832474
H        -9.73998456372054   -3.31447124809976   -8.05251056212869
H        -9.59400193732612   -7.61161938214802   -7.87318471989918
H        -9.11519007134216   -6.81102660612226   -9.37661899441052
H        -8.11207993432607   -6.63698635492015   -7.94230779220814
H       -11.88203996273722   -4.64215278547475   -8.46642161949972
H       -11.13393031034135   -5.67002001348983   -9.67676661138528
H       -11.87978475705369   -6.40570675161581   -8.26155523590737
H       -14.26144473904155   -6.20519082075517   -2.53263281636065
H       -13.29691143096232   -7.18395597488600   -3.64281951107313
H       -12.56170923979542   -6.51692000652579   -2.18749426146609
H       -13.78385778425600   -3.90747171828579   -5.38822938639781
H       -14.12031331745044   -5.64597372926686   -5.47370091076132
H       -14.94980551578892   -4.64091112600667   -4.29179508765304
H       -12.13279501356721   -4.01194286781299   -2.01983177585131
H       -12.54275936319877   -2.96111658425472   -3.37268470401372
H       -13.82267803892867   -3.67121638221075   -2.38264636823020
H         0.15918914412935   -4.99077327807685   -6.67582127356140
H        -0.12571033566509   -4.49140461225099   -8.33616378551969
H         0.19278476330763   -3.27057926399518   -7.10875257101994
H        -1.98910925506977   -2.12065924549140   -7.86495189104438
H        -2.10889972231549   -3.40834271528224   -9.07219972566571
H        -3.46817524996846   -3.08327783778147   -7.99872322058719
H        -3.50919999171546   -5.44783559972970   -7.18006114074374
H        -2.21815323003248   -5.82071819917999   -8.32210285753791
H        -2.00814630987760   -6.23572494154936   -6.61631309602611
H         1.67624629304727   -1.88611884104799   -2.28397944295359
H         1.26985052702147   -2.42789533461670   -3.91001059970578
H         0.48230439775103   -1.00221526705010   -3.24027101789767
H        -0.50559643698502   -4.89871773548259   -1.71429812796372
H         0.64249766817100   -4.74702682117263   -3.04266412559892
H         1.10387179367500   -4.23150688449142   -1.42234262274188
H         0.16083406765755   -2.23095703142935   -0.39568514526180
H        -1.02381921359701   -1.22180832984299   -1.21610576188444
H        -1.48079333010100   -2.82731559408005   -0.61930242833510
H        -3.33480251011898   -5.84369457373908   -4.47591866615409
H        -4.65864960562842   -6.46517338111817   -3.45272850655879
H        -2.80426447848273   -8.04328214362002   -5.28433328446988
H        -3.39643676327172   -8.49340097089743   -3.67710315841313
H        -4.61305597576068   -9.55745746517700   -5.85713636914543
H        -5.63377736159921   -8.91642633028778   -4.55807024688914
H        -6.42171812482848   -7.56388670191998   -6.41659176591576
H        -4.79003167139232   -7.50939373584979   -7.14344202068814

