167
CSD_code = NEYWUK | q = 0 | S = 0 | Stoichiometry = C66H92N4O4Zr | MND = 6
Zr        5.94032605796183    2.99965949822712    6.62254508727946
O         4.62614220655577    3.61867049456103    5.22561622538369
O         7.25071440892675    2.27935596478552    7.98359933422397
O         7.31244467887190    3.42927687013389    5.21041081329637
O         4.57156110118819    2.66939235715743    8.07472219314197
N         5.81653801759953    6.28678749040431    6.83660656736696
N         6.44040871548612    5.47671353965310    8.71679071658182
N         6.09995913395956    0.37254846315439    4.63673356797611
N         5.39719766077374   -0.23732317401544    6.56409050512724
C         3.67704769306286    4.51598340647332    5.07235944132698
C         2.35823635463991    4.18663804974047    4.64372912741405
C         1.39333093054942    5.17578245453822    4.65273247966692
C         1.64107212232213    6.50416712374020    4.99846582729287
C         2.95643837432945    6.84726512956344    5.25144839036716
C         3.95662648591702    5.88892936665115    5.26946528000997
C         5.39322807990091    6.32067224974402    5.45189537388208
C         6.14248298783526    5.13724864974253    7.45137750061570
C         5.90641407424499    7.33807021744516    7.70397822629639
C         6.30920994225577    6.82410417707399    8.89663776503482
C         6.84897193791258    4.48991552086136    9.69543108291743
C         8.30682116946501    2.73231828708968    8.62519184468332
C         9.56085007948893    2.05477303664247    8.63504652928476
C        10.64995661850544    2.68922351057840    9.20172916956247
C        10.58775132152044    3.93125145811266    9.83293614490976
C         9.33279140289206    4.49353951626222    9.97821819152682
C         8.21366283698338    3.90574160440189    9.41085392723381
C         2.05446998536843    2.79338564327233    4.09965625208081
C         0.59226655502105    2.60860671281143    3.67815753244454
C         2.93424498998843    2.59340118128979    2.85649016958640
C         2.37336297597648    1.71388367114769    5.13908751763852
C         0.48988780524661    7.49664646320524    5.04800030939810
C        -0.15991575823379    7.60325229958803    3.66146474927036
C        -0.54525521165668    7.00564110761939    6.07040949515699
C         0.94398369181965    8.89674100891547    5.47050915729624
C         9.66632075488887    0.62178619002927    8.11998002877961
C         9.22600599701048    0.52887625797195    6.65621601031862
C         8.74321259611909   -0.24055254213998    8.99418162517425
C        11.08213618641178    0.04209458002431    8.21361317479913
C        11.86343037821879    4.57621891691395   10.35138731584808
C        11.60668672880782    5.94192424397059   10.99447826504601
C        12.82853431869987    4.77960880987868    9.17445417215295
C        12.51278389485374    3.66684264599411   11.40363527619595
C         8.27985978581392    2.83724462754673    4.54476715626194
C         9.60873744598830    3.34918677001001    4.48551512438333
C        10.58757763083357    2.58005329710699    3.88591055435541
C        10.34686415467899    1.35094173994170    3.27200285742961
C         9.02791042600379    0.94478599968567    3.18644712577976
C         8.01338558120284    1.67272601818801    3.78640785485971
C         6.57732390503720    1.24712964727998    3.58548455720594
C         5.73786034867454    0.84343836863649    5.84208983613472
C         5.99001287161920   -0.98851598539589    4.59930001338451
C         5.53718883012561   -1.37517585415757    5.82162522126525
C         4.94353639660149   -0.12768437122008    7.93523407064300
C         3.49956529872064    1.92139070827930    8.22940245549181
C         2.23929994017564    2.44071240944452    8.63915121045170
C         1.13488292785594    1.60479840774311    8.62250771771701
C         1.19219544278521    0.25557368818953    8.28905984532225
C         2.45202028837858   -0.27894756137097    8.06784118296578
C         3.58208909205686    0.51711898352653    8.05757398462687
C         9.91182426698932    4.75740525062767    4.98993099350130
C        11.38609315554240    5.15225939250021    4.84674289528904
C         9.07676387680024    5.72843850974429    4.14171434502906
C         9.53751256772090    4.90638831245629    6.46806850715886
C        11.51087990776512    0.54953976544815    2.71031666083600
C        11.06252926173871   -0.78169791773175    2.10064560078152
C        12.21782870475189    1.36224326264146    1.61679913333334
C        12.49593056487474    0.24212818407098    3.84754219033995
C         2.13265756587057    3.86548560877163    9.17746757999487
C         2.61820395352051    4.88266414278275    8.14050746310943
C         3.01708534495197    3.94236039450484   10.43116081469902
C         0.70807189108890    4.26276408896702    9.58033165747519
C        -0.03682806449274   -0.63649445364748    8.20291571736911
C         0.06083846505450   -1.74528256009921    9.26000724667175
C        -0.09676949492069   -1.26033943374888    6.80089154973945
C        -1.34242142328696    0.12912776719091    8.43392764299653
H         0.38724815376039    4.91348450942064    4.37305258165377
H         3.23680829697945    7.87367891711679    5.43229993856502
H         5.53510658526421    7.33532422951466    5.06911127463356
H         6.03175297064412    5.61611364472900    4.90142841932789
H         5.68697860686560    8.34742806566924    7.42109761935904
H         6.50312305419923    7.30940950653961    9.83158865105350
H         6.83808251461660    4.95930095528575   10.68313260500016
H         6.11779074643464    3.66995906405913    9.66053089838740
H        11.60734803091201    2.19848081052732    9.16140501597931
H         9.19355275631337    5.40053226939739   10.54648801208422
H         0.31294653874116    3.30408324018484    2.89008037850104
H         0.45885836878789    1.59867859497709    3.29410395001951
H        -0.07856381070280    2.73537538697740    4.52495379433867
H         3.97763042294572    2.74749094017983    3.11517134874558
H         2.81266899474529    1.58746597245937    2.45826885489923
H         2.66214428692811    3.30966702299293    2.08344366297704
H         1.72247680841639    1.82212191603285    6.00291940588917
H         2.21828033786442    0.72293508269173    4.71286540259502
H         3.40881480291123    1.79777724175876    5.47228196497465
H         0.57609357618685    7.92217936271941    2.92644527919855
H        -0.56650734216476    6.64780896656059    3.34235920329646
H        -0.97012163073663    8.32982739007316    3.67874583896331
H        -1.37487316737039    7.70715047484617    6.13592534798539
H        -0.94267812749959    6.03358693760494    5.79230046083717
H        -0.08726262557440    6.91710051732214    7.05325560927780
H         1.41108053076573    8.87294607710378    6.45231605461515
H         1.64471272492383    9.31398845915182    4.75125757949182
H         0.08219664456057    9.55939161752707    5.52203591852379
H         9.91524299969482    1.08114453936605    6.02297798121751
H         9.21477934273226   -0.51112963485872    6.33007558289923
H         8.22838912186640    0.95070885822745    6.53367826246592
H         7.73033820622796    0.14831986479542    8.95665904021060
H         8.73891210568016   -1.27193442228190    8.64522545159631
H         9.08083683961788   -0.22426527795239   10.02882135646148
H        11.43641601717436    0.01780009877418    9.24160884198709
H        11.07167840450869   -0.98079141804954    7.84077652674604
H        11.78012912860622    0.61192992620480    7.60441262924439
H        12.55175085773453    6.38004986650068   11.31031849406893
H        11.13875445153881    6.62223675293110   10.28668830902135
H        10.97152768791350    5.84714655580704   11.87220693444943
H        13.74687814601183    5.25403968666968    9.51536282555762
H        13.08685385279733    3.83230727640315    8.70960636001203
H        12.36938850403308    5.41459439799988    8.41981957756854
H        11.82193999973672    3.49220488368531   12.22578852402250
H        12.78550833548958    2.70486573255582   10.97908439513548
H        13.41342289544459    4.13168855220919   11.80033860306101
H        11.59961556326322    2.94742658073038    3.88510612591683
H         8.75640647446323    0.05352264690909    2.64165740621128
H         6.46582911801727    0.73229811190353    2.62703302512820
H         5.95025755519476    2.14906261387406    3.60554409118012
H         6.23120772206235   -1.56933978220504    3.73239325805743
H         5.31482236662989   -2.35127024567173    6.20255044873098
H         4.92699700232121   -1.12932444757233    8.37405889319633
H         5.66506281679864    0.50535698330160    8.47081160881531
H         0.18033902800757    2.02133522706154    8.88676784546020
H         2.57428531010845   -1.34137382413323    7.90757963119537
H        12.02593138114272    4.49777111340918    5.43416713287039
H        11.70561984590581    5.13179915525489    3.80745499568636
H        11.51861049077894    6.16787697420239    5.21567959623527
H         9.19896735306766    6.75050907763101    4.49644244375323
H         9.38815831387313    5.68167764111884    3.09981272980774
H         8.02656808871975    5.45784045087102    4.19843328877688
H         8.49131471414351    4.64073647570802    6.62665195294409
H        10.15673349006342    4.25365561928758    7.07782559548835
H         9.69436746207977    5.93454882292118    6.79419392040615
H        10.55164821838908   -1.39436697379804    2.84001223893560
H        10.40172443331058   -0.62014707115861    1.25208352227994
H        11.93245578624900   -1.33277835111909    1.74790270165428
H        13.03844037610300    0.78819661487692    1.19037958060019
H        11.51747793403826    1.60905992331135    0.82158339710833
H        12.62137271291609    2.28939049303355    2.01375259960666
H        11.99730837766787   -0.32431585589387    4.63129013565145
H        13.33355022439078   -0.34452398087193    3.47468095598074
H        12.88840536392661    1.15539729225858    4.28583250326168
H         2.62756145835305    5.88476806360688    8.56919220367646
H         3.62417623274549    4.63037117592227    7.80490506264585
H         1.95603502296063    4.88299749562575    7.27871311151081
H         2.64716930728054    3.26149540386504   11.19557788364481
H         4.03521142245058    3.65967621895414   10.18229208949347
H         3.01998678955997    4.95287502000490   10.83660181168270
H         0.71908857701928    5.28327262369397    9.95941084346027
H         0.03562463242050    4.23138891856751    8.72627049628931
H         0.32150017620071    3.61962597217476   10.36747738855869
H        -0.82023283327976   -2.38310045262393    9.22169820615285
H         0.93799918594484   -2.36602703824795    9.10005363746857
H         0.12985604520554   -1.30932655995933   10.25437382677585
H        -0.97235148272275   -1.90022070044047    6.70835598334611
H        -0.15740641905935   -0.47824512633467    6.04735170681712
H         0.78644796672122   -1.85964849654328    6.59826341954150
H        -1.38226387288731    0.54245067437500    9.43888657186043
H        -1.45360260165175    0.93497570985875    7.71229812426683
H        -2.18666426894901   -0.54798326282673    8.31675811264494

