83
CSD_code = NEZBUQ | q = 0 | S = 0 | Stoichiometry = C43H33ClNO2P2Rh | MND = 6
Rh        2.59311596684298    3.08214433991453    5.14226593569125
Cl        0.77911699122814    1.99579861273109    3.87110460137492
P         2.71034910249076    4.24308119453118    3.21005859661612
P         2.29122091401564    2.17807157388462    7.19227346608324
N         4.03797180164689    1.39090799340222    4.49713110083674
O         0.82944721047671    4.52271304078568    6.79685992339949
O         5.06110628304185    4.39819094776323    5.53036801599634
C         1.19768109371295    4.40262542709235    5.64687483999596
C         0.54604323606167    5.15157267178585    4.53441369343021
C         1.13890927248255    5.15062135158803    3.26832894215290
C         0.56854668012106    5.86531179787996    2.22664857410391
H         1.05101398349958    5.89062985419288    1.25890519302168
C        -0.62223193855569    6.54170429744180    2.43882402757517
H        -1.07939852511234    7.08829954475388    1.62664345080302
C        -1.22980588071098    6.52173841020904    3.68580679668064
H        -2.16131083157200    7.04724979868299    3.83700468937580
C        -0.64625901584084    5.83853591423182    4.73768943805223
H        -1.09931104607083    5.82161712641392    5.71819567408552
C         3.81070304218354    5.66886562344759    2.91151508737789
C         3.85556693307347    6.62045841613911    3.92759553648680
H         3.27317989591345    6.46102054855713    4.82783301618256
C         4.63419260003503    7.75190594333051    3.78995357050821
H         4.66846993424273    8.48429967230815    4.58331884110165
C         5.37272584691221    7.94592419075081    2.63272000729729
H         5.98601291358370    8.82848416040447    2.52431621354035
C         5.32144847719721    7.00917922934017    1.61533229886243
H         5.89060816277100    7.16286474632706    0.70967282838998
C         4.54302989161136    5.87183468201025    1.74990817753111
H         4.50583375163848    5.14782986349545    0.94826642188870
C         2.78156373455875    3.28450882994075    1.67598031558273
C         4.00841538815448    2.69200464226247    1.37900274291328
H         4.86119834519463    2.89433961261313    2.01643578447100
C         4.12733612878383    1.84900639075591    0.29113910479520
H         5.07944199729428    1.39043997673526    0.06389355498649
C         3.01993302034887    1.58439104838947   -0.49968745947801
H         3.10989105127721    0.92102212919492   -1.34764616496833
C         1.79585337533169    2.15568135574707   -0.19407607232475
H         0.93031167321422    1.93189172024641   -0.80033944461127
C         1.66891034967110    2.99961679922326    0.89541016752661
H         0.70605716345195    3.41218503340539    1.15651745343352
C         4.03787802978946    4.06952169269267    6.09797094027437
C         3.82547288742523    4.33770671120045    7.54577699575534
C         2.96029195765923    3.49591320306994    8.25409309959742
C         2.70842450424291    3.72937388755349    9.59483581112185
H         2.02215951367863    3.10033997958679   10.14156093188850
C         3.31826331023059    4.80350945736617   10.22447362881133
H         3.11090148311489    4.99792708576326   11.26683813897682
C         4.18490881347272    5.63317237365151    9.52904005299254
H         4.65300735002637    6.46607344412724   10.03319292674657
C         4.44497927671801    5.40222013846375    8.19017911224386
H         5.11211781686881    6.04080073871296    7.62879434447321
C         0.74004259740207    1.62992197060859    7.95414481365113
C        -0.46362440400675    1.79584858248269    7.28090671065078
H        -0.46634961810235    2.22095437747130    6.28768360519010
C        -1.64575598132450    1.39159033607403    7.87666101755406
H        -2.58148216455090    1.52011187491877    7.35294930238024
C        -1.62955273883824    0.81918858576926    9.13730391230432
H        -2.55363038123775    0.50825421760837    9.60286789987557
C        -0.42619219925180    0.62797344265861    9.79911337139971
H        -0.41279957082409    0.16333747546587   10.77487079719932
C         0.75886449445306    1.02506092608000    9.20944353572451
H         1.70283005280638    0.84832705668734    9.70902347264198
C         3.38961998811781    0.76201990129231    7.52963461211628
C         4.73467707236213    0.95097833899635    7.82990065025140
H         5.11253323903193    1.95097255281859    7.99652425040158
C         5.58592800733071   -0.13570911136262    7.91435341955822
H         6.62867054865669    0.01642127579331    8.15290445742076
C         5.10648989690776   -1.41544039764675    7.68742097863200
H         5.77517293695847   -2.26139950927535    7.74982573609113
C         3.77007543293750   -1.60864629210705    7.37667184791726
H         3.39564872884275   -2.60551423475300    7.19438178656535
C         2.91590129353786   -0.52555612047726    7.29104724158222
H         1.87367995948261   -0.66753781366583    7.03716823059781
C         5.36181530582373    1.51085232628862    4.46645318148662
H         5.76443851833189    2.49143108108009    4.68698111869538
C         6.20353292864017    0.45370333241398    4.16765840010005
H         7.27219562750323    0.60176698390924    4.15878070170063
C         5.64880329859395   -0.78340320464251    3.88338640891606
H         6.27695146679706   -1.63068965185474    3.64981712810631
C         4.27012482454540   -0.90366392773665    3.89987148254027
H         3.78830433366339   -1.84238325200425    3.67659892401995
C         3.50444010810733    0.20661027830285    4.21309576003896
H         2.42245247904799    0.15209137495554    4.22024032064973

