82
CSD_code = NEZCOM | q = 0 | S = 0 | Stoichiometry = C33H42ClN3O2Pd | MND = 4
Pd        4.03975516833324    5.30676909547016   11.06033097716779
O         5.43256693147821    5.30442314617776   12.59426323789357
O         5.54217658105521    5.30710612291251   14.80938830523833
N         2.73948020736508    5.30145845928932   12.64135019972022
N         6.15723148693449    6.39832412982149    9.39468197699251
Cl        2.47357400856091    5.30678523587770    9.47364738922945
C         4.92409463428875    5.30592892539282   13.75671156274641
C         3.38948004810873    5.30296568578546   13.81098993292948
C         2.71945231841268    5.30219231451028   15.02606344318807
H         3.30743034487910    5.30356786328960   15.93090036310560
C         1.33570802692306    5.29983886633041   15.03014496827100
H         0.78530620098977    5.29918454484927   15.95922804527517
C         0.67061205892666    5.29834358869480   13.81282220033810
H        -0.40691663362606    5.29650221168532   13.76547981111350
C         1.40988210063766    5.29925702889696   12.64138783863682
H         0.92770322611259    5.29840788511740   11.66997455925786
C         5.46988180762039    5.30731882350919    9.73903202216217
C         7.48597277050237    6.06943138186752    8.87355620895117
H         8.24601547742292    6.47572222661505    9.54777313211263
H         7.63713558567277    6.50537163431941    7.88275461857087
C         5.68479558822527    7.74362939172933    9.24660921210386
C         5.71271694749684    8.64186292303398   10.31798195170430
C         5.40682776048137    9.97766504545483   10.08488152146910
H         5.43372229969820   10.67721563450793   10.90549550165068
C         5.06862258166213   10.42436076953972    8.82507011904319
H         4.84545805185801   11.46762707754570    8.65823968790352
C         4.98829613174982    9.52128001611426    7.78510391181610
H         4.68386459181325    9.86397060140910    6.80857500628745
C         5.29127025568757    8.17952615317971    7.97260479546532
C         5.12930858628631    7.23954365270190    6.80403922343714
H         5.44236716921975    6.23982786048044    7.10641837998176
C         5.98286450907081    7.66402320007204    5.60625415365927
H         5.62434406319830    8.59747876591839    5.18121451312406
H         5.93885992504781    6.90192549888899    4.83097513696064
H         7.02371792540685    7.80198684695080    5.89577483446170
C         3.64959184173374    7.15226091506081    6.42302921274168
H         3.07537712171524    6.74772480106942    7.25323664827304
H         3.52382231891288    6.49814101315754    5.56383781932293
H         3.25200823384595    8.13144113853012    6.16993245464753
C         5.95148547989205    8.19197769482250   11.73558370617773
H         6.26060454993605    7.14223086334213   11.74019685361016
C         7.03254983516854    8.99946021960719   12.45262222808585
H         7.96000128318327    8.98540697534709   11.88357720704745
H         7.22070991619351    8.56145880326624   13.42973504369479
H         6.73308841444898   10.03479061262495   12.59612925524934
C         4.60444827261157    8.29604274946987   12.46563983702107
H         4.28177376965882    9.33312376687876   12.53718286962781
H         4.68992277843761    7.89104931884526   13.47249730203008
H         3.83592522097679    7.73526876778605   11.90304374162607
N         6.15270388311190    4.21387807662907    9.39393281898695
C         7.47966820108787    4.53740786775484    8.86510342395005
H         8.24264151147380    4.11692331362573    9.52691216903458
H         7.61722069367549    4.11178371935754    7.86764710242430
C         5.67648925936841    2.86938089678223    9.24931322634231
C         5.71702486098968    1.97006846471047   10.31946210499785
C         5.41281602279556    0.63365110169663   10.08787357961374
H         5.44939389070896   -0.06670695391442   10.90742733233565
C         5.06454476343055    0.18728046446137    8.83064691728657
H         4.84405021361318   -0.85666709898329    8.66449513881693
C         4.97007007980609    1.09154709291931    7.79292827082582
H         4.65742421149071    0.74902531086963    6.81891783481573
C         5.26965903617829    2.43427246502428    7.97923279699843
C         5.09153947730560    3.37547863635618    6.81409970410700
H         5.39083745469081    4.37833932606647    7.11984576663328
C         5.94745526686591    2.96493308968782    5.61308238614379
H         5.60075685257821    2.02666527422541    5.18869678615682
H         5.88999204857908    3.72699753103568    4.83867068912115
H         6.99121442329658    2.84125317646025    5.89866907055327
C         3.61009744941615    3.44503292540961    6.43623987412945
H         3.03323739460505    3.84110593189215    7.26859713272314
H         3.47450044325066    4.09983542526755    5.57910006831027
H         3.22347197502798    2.46196155587711    6.18138390092542
C         5.96545388479651    2.42011624050654   11.73537085244452
H         6.27195357805790    3.47065981123761   11.73818233839598
C         7.05276875640874    1.61466288707231   12.44510059294346
H         7.97653106797458    1.63073648260135   11.87012819760942
H         7.24631974727907    2.05260935706438   13.42118174600912
H         6.75634740819316    0.57867619812940   12.59017609459379
C         4.62328709292613    2.31311444783472   12.47389629644240
H         4.30330698147843    1.27536054864148   12.54753247934800
H         4.71386909771600    2.71871510373287   13.48000902559444
H         3.85026519758033    2.87200108229020   11.91588136028205

