80
CSD_code = NEZCUS | q = 0 | S = 0 | Stoichiometry = C33H40ClN3O2Pd | MND = 4
Pd        4.08015633950902    5.28226771817297   11.09967708880127
Cl        2.55012287684557    5.28037961207003    9.47094037015817
O         5.44218264894078    5.28015739260662   12.65953699004168
O         5.50690760803003    5.28024175546948   14.87658804650003
N         2.74999691146849    5.28032363003159   12.65148670281818
N         6.19606229939710    6.36312254837637    9.33904581675282
C         1.42051547492761    5.28036459426153   12.62449992375984
H         0.95848099513234    5.28040600714564   11.64345827112726
C         0.65744706995352    5.28055143718261   13.78042834685549
H        -0.41889935067678    5.28062898443197   13.71130605814598
C         1.29737938549217    5.28062496481876   15.01126757083718
H         0.72787724423827    5.28075201094275   15.92883108233239
C         2.68078408511898    5.28052439145789   15.03550506177241
H         3.25100831242161    5.28059765230807   15.95178332856796
C         3.37546319623411    5.28041938979818   13.83424272718816
C         4.91091283471425    5.28045216030833   13.81142525023216
C         5.50122151800862    5.28067811268522    9.75399181704769
C         7.35000730028629    5.95539060224711    8.70852967594777
H         8.05616416698229    6.65855816946373    8.31732345983689
C         5.74467317741302    7.72030376234080    9.21956136417002
C         5.37676912573266    8.16922348025995    7.94184088381062
C         5.07549173138674    9.51330461018033    7.76871604001902
H         4.78762762201381    9.86940730123360    6.79218118973666
C         5.13840238594391   10.40219003564992    8.82218533470597
H         4.91892564901270   11.44765615595180    8.66528553748402
C         5.45647822597117    9.93955221061151   10.08130514896878
H         5.47283929918656   10.62886187335361   10.91053919932007
C         5.75502823377910    8.59995751423546   10.30459693656288
C         5.97680626287618    8.13803424195173   11.72101833380227
H         6.27295561025807    7.08412292745717   11.72491866995722
C         7.06723692896410    8.92601884882943   12.44602637522868
H         7.99960239501151    8.88930276510884   11.88635915754088
H         7.23660092262958    8.48648986103853   13.42584489758754
H         6.78787351691465    9.96779206464265   12.58351926207649
C         4.62799541797341    8.26202548479872   12.44594397000549
H         4.32058973536029    9.30384417318213   12.51630207449045
H         4.70583687129041    7.85765910614582   13.45380913980084
H         3.85187691462213    7.71207721277535   11.88212097098907
C         5.22974564095345    7.24689798038524    6.75621499252773
H         5.56149147362169    6.24480715427912    7.03006241309981
C         3.74969795668022    7.15004310928620    6.37702909677941
H         3.17942036743035    6.73489370768949    7.20505324498659
H         3.62777688386253    6.50116241709054    5.51334201214392
H         3.34407834085453    8.12814527168330    6.13227582603384
C         6.08118285677551    7.70149274855497    5.56874928463680
H         5.73522160244188    8.65278018975575    5.17412035086166
H         6.02361712761850    6.96396518578368    4.77113271202857
H         7.12390327418710    7.81024763452504    5.86137402842435
N         6.19588043484184    4.19799929113831    9.33918365648645
C         7.34987879791871    4.60550284836512    8.70856693397837
H         8.05593016658969    3.90221154640635    8.31739637330408
C         5.74440367405233    2.84082596839676    9.21971843101132
C         5.37654502125247    2.39186963160664    7.94198121235403
C         5.07550340443725    1.04773458368296    7.76879642437041
H         4.78768213271245    0.69161478760031    6.79224963691137
C         5.13862453195413    0.15880252046919    8.82221938685213
H         4.91931221785535   -0.88669683919305    8.66529033631955
C         5.45668917310910    0.62143942269073   10.08133518346374
H         5.47322945938657   -0.06791653223945   10.91052647683401
C         5.75500318931326    1.96108116961977   10.30467879751749
C         5.97679859061307    2.42294926086731   11.72109856354808
H         6.27273548313072    3.47692188053731   11.72500626365812
C         7.06737926519132    1.63510336883446   12.44603291884775
H         7.99970471513341    1.67191093169689   11.88632100755837
H         7.23673962441442    2.07465084292943   13.42584698360473
H         6.78814230567098    0.59329799657848   12.58353437583373
C         4.62804877156500    2.29851662406086   12.44607121885278
H         4.32105763443723    1.25659811049920   12.51657014674871
H         4.70578305365490    2.70306153716487   13.45386525681990
H         3.85154861658387    2.84789631571723   11.88225858346270
C         5.22936145957292    3.31417782104237    6.75636050889316
H         5.56086805615927    4.31633022883491    7.03025869644444
C         3.74927523594483    3.41070436539959    6.37723944639162
H         3.17895151619660    3.82570533120090    7.20531123207608
H         3.62716961175736    4.05959548609722    5.51358934367401
H         3.34385969084701    2.43252658512820    6.13244775371972
C         6.08083248223756    2.85980933115722    5.56881476820007
H         5.73506972327237    1.90845831106188    5.17415934701104
H         6.02305612674141    3.59734391794216    4.77121647393819
H         7.12359936568861    2.75127319213025    5.86135822483128

