27
CSD_code = NEZGEE | q = 1 | S = 0 | Stoichiometry = C8H10MoN3O4S(1+) | MND = 6
Mo        0.37310726954594    3.06631313896306    3.30547199538495
O         0.57466914265169    1.49505171236201    3.70300006985672
O        -0.68797091732437    3.39273518745613    2.10196625342779
S        -1.41263593873772    3.12395278046948    5.04379793904721
O         2.01174684158373    3.68606824868902    2.87173697992633
N        -2.89758713223553    5.20986080861681    5.65132462799083
N        -0.95497928654697    5.67647177631022    4.49374875709629
N         0.17168572734316    5.29612084012385    3.82811748256632
C        -1.79053878109346    4.78222145774642    5.05004901915097
C         0.83019018791423    6.21822619344807    3.19908903048073
C         1.98895631935630    6.00620169516953    2.40550054769252
C         2.59474703294227    7.09334039426565    1.74145011898985
C         3.69447123769497    6.90454974482707    0.94166155657262
C         4.23226552696497    5.62587135609922    0.78056793366174
C         3.67412378008133    4.54150961160007    1.42485713242342
C         2.55069824656685    4.70912741811490    2.24064969382553
O         1.61647685434113    3.28104079199132    5.58205329575141
H        -3.17721099662461    6.17854461331307    5.68067667969245
H        -3.51028039762893    4.52204909329520    6.06311734554479
H        -1.20241358052019    6.66961385165133    4.48179336465687
H         0.46897807763655    7.24951776080583    3.25524827185658
H         2.17542381157129    8.08062891172498    1.86417671575157
H         4.14368201201095    7.74223737496365    0.43293948295873
H         5.09398999835419    5.48454735250392    0.14678139373987
H         4.07452386677689    3.54396601172742    1.30723421815252
H         1.40794216653743    2.40585668524134    5.94097293633415
H         2.57883893083792    3.29757518852207    5.49171715746639

