66
CSD_code = NEZJAD | q = 0 | S = 0 | Stoichiometry = C30H29Cl3N2PRe | MND = 6
Re        3.40387134008307    3.40711308157920    2.17941960104068
Cl        3.30890777390550    4.86071410926269    0.33859589351312
Cl        5.68046027814876    3.04895822383644    2.06460395092132
Cl        3.22018737246326    1.82065562424335    3.89742639708976
P         3.76502360605220    5.34652709611322    3.53361512464624
N         1.25484305072193    3.60266084022579    2.32884184666963
N         3.16286571024034    1.80378949801625    0.84783578053260
C         0.63191036414920    3.51596086775185    3.51113645576348
C        -0.72965242107619    3.68848931415284    3.68625082419639
C        -1.50079613328073    3.96476805238162    2.56014444173388
C        -0.87032186384404    4.03471296088806    1.33051319579074
C         0.49607533433641    3.84775254310730    1.25480092915886
C        -1.34451863553011    3.59137019090799    5.04467815020224
C         3.94410954382346    1.72541416779313   -0.22730076492612
C         3.87310048866652    0.69922829334121   -1.16086723303798
C         2.92763537444974   -0.29687718010846   -0.95601802693031
C         2.10839192408632   -0.21776360274385    0.15923534930852
C         2.25566471944991    0.84175102175474    1.03122349892356
C         4.80350163977320    0.69275456249356   -2.33050716203819
C         2.19707460569013    6.10751492977666    4.06557409784078
C         1.76616386968233    6.16995213948119    5.38354968550046
C         0.52172130909126    6.70159543173032    5.67901193980220
C        -0.29800260418814    7.16739395526410    4.66575265654048
C         0.12817723921228    7.10784150799619    3.34729305187363
C         1.36751945709021    6.57924756427901    3.04794458402634
C         4.72852646658611    5.18761196967255    5.06961723420088
C         5.81328155880687    6.00968951167281    5.35491036222992
C         6.51932584477269    5.83921655320335    6.53278459754676
C         6.15389003064708    4.85086368617772    7.43096351122888
C         5.07967380101749    4.02331091726195    7.14688648815266
C         4.37110504972211    4.18752989676257    5.97153502475283
C         4.58819268860010    6.74816891019341    2.70913271818738
C         5.63486711385380    6.49213315916122    1.82830290951534
C         6.29261779533107    7.53816390408219    1.20748223854096
C         5.91555119023473    8.84601983993182    1.46345342389350
C         4.88391127286999    9.10606554261230    2.35040918123981
C         4.22209295377799    8.06432189939509    2.97483285435633
H         1.25861481751297    3.28462382281332    4.36182187031425
H        -2.56600789467223    4.11576413415013    2.64926002535135
H        -1.42831807592625    4.23512063094346    0.42962097498924
H         1.00781600197166    3.91606261630599    0.30487255409917
H        -1.77283810565501    4.55149777786199    5.32809281064913
H        -0.60147911971255    3.30927123699543    5.78459535253007
H        -2.14464860134669    2.85310150581247    5.04715484029714
H         4.67291142787471    2.51413433195408   -0.35850714200884
H         2.83500878218650   -1.11808010258895   -1.65130900309687
H         1.36291873300908   -0.97191551480910    0.35662046261421
H         1.63886714219699    0.91453768505137    1.91652465043710
H         4.58069925884860   -0.13370305122929   -3.00034108448817
H         5.83279442790757    0.59852594214803   -1.98743610015791
H         4.72366763541680    1.62794769614710   -2.88182758799149
H         2.40402831735317    5.81022240350285    6.17795032059246
H         0.19249286919403    6.75236452122517    6.70687581022674
H        -1.26782442112504    7.58138266556445    4.90127936051373
H        -0.50846957927494    7.47334530115195    2.55480656798465
H         1.71042314689498    6.52453428143736    2.02270549404252
H         6.11080436123325    6.77783849524608    4.65620445200341
H         7.36291181008740    6.47929576982344    6.74707774165494
H         6.71170467502018    4.71913212885268    8.34659191449974
H         4.79904401220195    3.24171449991863    7.83762390258480
H         3.55452291015522    3.52129804133423    5.73252934004409
H         5.92757653450180    5.47019732688916    1.63035687378569
H         7.09899737055047    7.33141307492664    0.51947544976752
H         6.42512283055345    9.66304765766348    0.97367303166074
H         4.59136172913275   10.12556544409664    2.55711517910169
H         3.42004789442995    8.27483869326150    3.66822712601994

