101
CSD_code = NEZNEO | q = 0 | S = 0 | Stoichiometry = C48H48Br2N2Ni | MND = 4
C         6.26197029784754   17.47224187733335    1.72697415129267
H         5.29296735832418   17.12799392193234    1.39428918907197
C         7.34183709496476   17.42466988910020    0.86535791515640
H         7.21606333246450   17.02988794841969   -0.13255697293201
C         8.58223841527226   17.88109365525442    1.27845892535507
H         9.42676585616550   17.83917525501008    0.60649443940714
C         8.73585521336823   18.38694216578458    2.55851939450808
H         9.70338819667733   18.73641602905204    2.88843117203072
C         7.65573844518894   18.44168599235362    3.41927122058589
H         7.78538130682731   18.81675975995176    4.42385577816848
C         6.40409540617200   17.98424443387166    3.01445576863963
Ni        1.57281633857214   17.04859375891693    8.02329349112100
Br        0.85946905331967   15.28357494246661    9.16015442173747
Br        3.70615298231141   16.62649046629438    8.47185717286374
C         5.25452122351114   18.03919365188216    3.92869392870953
C         4.38013249055652   16.96184793608597    4.02745959097710
H         4.57556180069130   16.07575668412385    3.44549895621480
C         3.29615547353062   16.99325351583761    4.88418095660782
C         3.05749788599222   18.16448591444821    5.61870591089250
C         3.94420431207121   19.24816822439409    5.57177663990974
C         5.03597233939456   19.15659821356232    4.72525948883567
H         5.73020294607835   19.98070553053381    4.66983709370372
C         2.35198867157361   15.81892980663342    5.01482926700849
H         1.85964445809173   15.87180397889496    6.01059971783052
C         1.25582120604360   15.90789908035841    3.95004993394049
H         0.70493451944960   16.84548551017204    4.02832811042613
H         0.55306346637015   15.08507618910540    4.06307211500917
H         1.69548762432494   15.85425209757936    2.95559062357277
C         3.07027779927740   14.47341754653339    4.95538666915869
H         3.43066387128140   14.25795309848533    3.95246791990843
H         2.38439213328909   13.68036241605495    5.24523276183892
H         3.91180721518431   14.46741988540673    5.64414179670907
C         3.79377947441433   20.43825371804195    6.49187512823755
H         2.83625119670009   20.37427454130568    7.02010750196102
C         3.81423989781466   21.76683598368428    5.73469771939757
H         3.02771486115748   21.79846750384887    4.98228132136325
H         4.77008938686988   21.92201207838128    5.24161674502834
H         3.65475869147940   22.58832031856130    6.43021992580831
C         4.90670682779469   20.39304013706096    7.54385774068466
H         4.88679248419295   19.44430951283287    8.07542246754730
H         4.77692079288007   21.19991339038612    8.26191037635771
H         5.88151697058589   20.50033992749775    7.07545588567339
C         0.91754861047278   18.93508042518505    6.20236332460996
C         0.57987366836821   19.88088339694477    5.14839529311477
C         1.14392140846303   20.26650294476724    3.95685013597612
H         2.05651015112322   19.82166056400100    3.58893636078513
C         0.49492814372059   21.26494341965967    3.20651951696738
H         0.94198068585941   21.56652466475599    2.27058409477833
C        -0.66568270495460   21.87255351365271    3.62106800179101
H        -1.11929170807365   22.64565203456785    3.01854082135830
C        -1.27986232726490   21.49040534489731    4.83540262025780
C        -2.46536154354996   22.00498307852008    5.40773059995410
H        -3.00529893397918   22.78684249316449    4.89429334182098
C        -2.92518416489553   21.52173383723992    6.60902088130225
H        -3.82717076331221   21.93788743644880    7.03337887457590
C        -2.27665954806828   20.49195991587917    7.31594318124505
H        -2.67736190509874   20.14692312466263    8.25741819992010
C        -1.13027544382563   19.95891724999012    6.77916723845636
C        -0.63622451615816   20.48267067346623    5.55838533167190
C        -0.19231274043465   18.91169969584284    7.15818111803142
C        -1.16814591521284   17.91619334457746    9.04827776873712
C        -2.43498800237922   17.42352953918987    8.70786886542446
C        -3.39122676402691   17.34739787413429    9.70611832725586
H        -4.36503343224183   16.94521676374253    9.47388119262543
C        -3.12253205854388   17.74234985947395   11.01129933345978
C        -1.84171638647332   18.18178073080747   11.32969372821854
H        -1.62794237103083   18.48050845747795   12.34296734112562
C        -0.84910353661427   18.25795550371775   10.37120121437636
C        -2.72961194453757   16.87778344656381    7.32917564421635
H        -1.90813930438333   17.13266901831159    6.65078222593995
C        -4.01362173528268   17.45626206918497    6.73297458401916
H        -4.88259534306371   17.16537378883832    7.31680945049609
H        -4.14826609314498   17.08357307474559    5.71962599908090
H        -3.96927383120165   18.54352418946371    6.69355187111981
C        -2.80771625677398   15.34986490575737    7.41150832312404
H        -1.88851038391526   14.94529023110174    7.82913053890012
H        -2.95798579592661   14.92754164489374    6.42015588534520
H        -3.63314562262141   15.04303228897558    8.04865383254848
C         0.54418121727913   18.74172988482592   10.70541365629856
H         1.25517852189627   18.29721037748638    9.97466285803728
C         0.61832646084199   20.26385565320532   10.55763212723695
H         0.33979104424796   20.57723237640716    9.55129431686160
H         1.62905314790747   20.61244722761873   10.75900939384767
H        -0.06066234628642   20.74146260395171   11.26188097855069
C         1.00987159540025   18.30097469990356   12.09033472313009
H         0.48444966917179   18.83862178441752   12.87609770062107
H         2.07363620754804   18.50102167378197   12.19847728498198
H         0.84800158377565   17.23321509232678   12.21820463928063
C        -4.16818473517257   17.67880018725578   12.04199605839435
C        -5.47015367122183   18.08370227391702   11.75700972477366
H        -5.70797993227629   18.46007053164616   10.77203675222809
C        -6.45198102469178   18.03168901488595   12.72868726475263
H        -7.45644296623280   18.35466793017136   12.49563253996513
C        -6.15048330748228   17.56845108479232   13.99839297278865
H        -6.91857718242797   17.52599531934759   14.75644230004315
C        -4.86038039427444   17.15826162554089   14.29078073835726
H        -4.62155893120518   16.79004376212593   15.27783969478897
C        -3.87561151934838   17.21526025069809   13.32247023795901
H        -2.87602781673441   16.87499627426427   13.54922968699561
N         1.93862456905682   18.19476135415369    6.45974674430523
N        -0.15713109891158   18.02101198523638    8.08626018274406

