104
CSD_code = NEZQIS | q = 0 | S = 0 | Stoichiometry = C32H62BN6ScSi2 | MND = 5
Sc       -0.82335295905758   -0.34557488933060   11.78010798153965
B         1.52760317999523    1.72328822177843   12.30564869118449
N         0.47675409113817    2.24188106617040   11.29391548362483
N        -0.17994114218461    1.39954649005236   10.45570190222635
C         0.95879803582443    4.69726900273740   11.51189364948656
C         0.38865390109064    3.50559873630739   10.83133172303301
C        -0.33695307728114    3.47613285998617    9.65728293334143
C        -0.66450585039313    2.13221238021780    9.45112291962201
C        -1.42719814233875    1.57142353427969    8.28064106996476
C        -1.25228759969353    0.05522939941075    8.19054826261654
C        -0.90574549576298    2.21033570566018    6.98597034128605
C        -2.91269076147249    1.90741735912154    8.45740045535909
N         2.24553278194147    0.52367304291457   11.66226711844688
N         1.63596771077553   -0.65620583697053   11.40215602472454
C         4.52148057608874    1.57578798309992   11.48872038356996
C         3.55217124143406    0.45669686280703   11.34814669177357
C         3.80329407326897   -0.81509621252083   10.87466694155086
C         2.57788657682169   -1.48206805088582   10.92949468328917
C         2.31160254821659   -2.90633721362781   10.52201269501980
C         1.59570021804002   -3.62565498913226   11.66937416096653
C         3.61916864493542   -3.64355307249328   10.21639972090717
C         1.44125287604169   -2.89229150786944    9.25999965535730
N         0.95525215543722    1.25271453217847   13.65777075833989
N         0.17822740433241    0.15063675738441   13.79855921294165
C         2.15412523315968    2.92601852982468   15.10743730775796
C         1.31283418374615    1.72378597293592   14.86810722338613
C         0.74767512808547    0.90220555623835   15.82130022837718
C         0.04857839915898   -0.07653914898935   15.10921545327281
C        -0.74632168392699   -1.19471120849628   15.73152187330164
C         0.04316599695918   -1.78279923901814   16.90988175469992
C        -1.03137662761946   -2.31367148869884   14.73055911870186
C        -2.07083701707815   -0.61197339931331   16.24376991165969
C        -1.79786616255251   -2.34166232224357   11.09478308750718
Si       -3.64307180675001   -2.72894048174981   10.93793114686224
C        -4.57235706959730   -2.62805382440367   12.61001622652947
C        -3.93497964417256   -4.52304701915161   10.30729059516601
C        -4.54085312106863   -1.60841922356065    9.66844582235164
C        -2.75411974038456    0.71428979649893   12.44328889768087
Si       -3.08434363677186    2.45038400642824   13.09550490713815
C        -4.68159492075068    2.53301731384808   14.16553931096261
C        -3.33076181688914    3.73149831528619   11.69340658010925
C        -1.70167648817011    3.13962093949914   14.22902978166356
H         2.30686214268915    2.58457250008547   12.50564923325492
H         0.59884374677201    4.75860851849117   12.53712843510436
H         0.65463938684907    5.59521926011688   10.98071745427255
H         2.04666040598594    4.65513044867896   11.53504091567578
H        -0.58794047155017    4.31665637033300    9.04307869901093
H        -1.67468464264838   -0.42662671232323    9.07643098433900
H        -0.19676695182886   -0.19935418603410    8.11047523740377
H        -1.76628712745375   -0.32562206976270    7.31019655332916
H         0.16162206941449    2.03153182787528    6.87532209117673
H        -1.07737865500534    3.28293312343722    6.98065034075598
H        -1.41890670014645    1.78074388805904    6.12848322076498
H        -3.27648008310228    1.49319691086350    9.39469269956096
H        -3.49330572926907    1.49036165939270    7.63759719072656
H        -3.06233326888309    2.98406857285077    8.47666499277040
H         5.49023041390136    1.25942477834462   11.11053313116607
H         4.63281846689143    1.86655893105143   12.53194073684425
H         4.19141988308969    2.44664471378318   10.92538647702147
H         4.74735221354686   -1.19260849955966   10.54157695049875
H         0.71302776710990   -3.05869407788299   11.96707512929382
H         2.26001020617462   -3.71222264852218   12.52767195442672
H         1.29291582795058   -4.62480233090080   11.36376915251174
H         4.28217704540760   -3.63167614921339   11.07849148136404
H         4.13505230823902   -3.19227030817369    9.37242343726629
H         3.40201698850277   -4.67980205348370    9.96601088288818
H         0.55037812029382   -2.28901420875335    9.43148265054379
H         1.14272196836481   -3.90300423013410    8.99040492357621
H         1.99555041730801   -2.46165675996892    8.42781532305104
H         1.73826547209713    3.79701225132349   14.60601995064114
H         3.16776243933292    2.77366043684933   14.74035410728263
H         2.19733278766278    3.12395425799330   16.17530949585524
H         0.83353829548762    1.00966144336235   16.88295289086730
H         1.02078697892666   -2.12685347155729   16.57943382222447
H        -0.49621310057435   -2.62818227866153   17.33130629724820
H         0.18485251290760   -1.04767485214124   17.69669235962210
H        -0.09845243912820   -2.71711650402327   14.33933563702463
H        -1.64089806451079   -1.94356947892721   13.90247807241206
H        -1.57264832071019   -3.11961691379268   15.22255033739598
H        -1.88641762678051    0.16067680166832   16.98676182034312
H        -2.67423275338737   -1.39372691168397   16.69997179841875
H        -2.62961003716263   -0.17029943017245   15.42209508708043
H        -1.38675246813247   -2.62150021260949   10.11099231611909
H        -1.42624395378289   -3.13184187984814   11.76936479454251
H        -4.65560094814661   -1.60699444417552   12.96542221943897
H        -4.06585301182020   -3.20545851803048   13.37749599382051
H        -5.57955466168028   -3.02317739823650   12.51767638766148
H        -3.47344688590767   -4.67751535300655    9.33646089305067
H        -4.99133250762318   -4.75247325666454   10.20499788735149
H        -3.50817085955883   -5.25269775905789   10.98893782473833
H        -4.54842695486902   -0.56911818479959    9.97926326794267
H        -5.57422325396037   -1.91721025657665    9.54392029478925
H        -4.06752919075297   -1.65706842643669    8.69297745682595
H        -3.45248522113312    0.57221755921769   11.60185530237561
H        -3.12857774471239    0.02786343993402   13.22218960106825
H        -4.58748675120009    1.92083285359457   15.05833197131224
H        -5.54232519673210    2.16896220815197   13.61238616119885
H        -4.90583841031543    3.54553490463897   14.48788873558295
H        -2.47505448580450    3.76021006056519   11.02774241686306
H        -3.46867771614273    4.73135089375883   12.09426456924745
H        -4.20586572782687    3.49652862471081   11.09598773013381
H        -0.77298859828805    3.25941338569216   13.68147827299159
H        -1.50720709338870    2.47792576563720   15.06725138944294
H        -1.97443044354392    4.10942813844797   14.63547987116998

