50
CSD_code = NEZWAQ | q = 0 | S = 0 | Stoichiometry = C21H26MoO2 | MND = 10
Mo        2.83788108389681    7.64901564815769    0.83035668847301
C         4.91674926813642    6.89850791489879    1.47871093798926
C         3.93272239527089    6.39682608333524    2.38885379122312
C         3.04023938751216    5.52273603537369    1.69161170356858
C         3.50001570512677    5.44415219095958    0.33484013533953
C         3.07392927283598    4.65249355553648   -0.76662551141862
C         3.87578889099015    4.60475642111187   -1.88693984680607
C         5.00597495840212    5.46327126087641   -2.02926350548831
C         5.35823901473373    6.35398598654240   -1.03685226006703
C         4.65821102736585    6.29635440468491    0.20158594053436
C         6.17618470139435    7.59075848776586    1.92785028435300
C         3.97137000324781    6.57693329734989    3.88116226055614
C         2.07760252012295    4.59563615848505    2.38397637994486
C         1.77071955147906    3.90308696091943   -0.70217182054976
C         3.53179701814509    3.67248936370269   -3.01615942205947
C         5.78209912192198    5.38810144917000   -3.31533177391250
C         6.43791547662412    7.38417483173619   -1.23613769873766
C         3.02310560504988    9.20466923257571   -0.90872519339688
C         2.35974423017575    8.01941339491587   -1.29264763806539
C         1.09153816602142    7.77727645903481   -0.72070672709569
C         1.15068581754103    7.98458185119866    1.67483699182449
O         0.13775912207986    8.16587219063138    2.19035040990436
C         3.09917344266418    9.42820010353942    1.49248661249232
O         3.27391103035750   10.49129837500337    1.89722352980272
H         6.28591237211674    7.49540333206449    3.00659077877850
H         6.18270307724450    8.65452460752228    1.68963541552591
H         7.04528611054220    7.12591198943245    1.46383245337654
H         4.37625842214210    7.55316971083943    4.14317482725600
H         4.59563556246467    5.80479151506997    4.33881255010606
H         2.97065176972837    6.51245456403876    4.30540391059130
H         2.21641593239668    3.57641696219341    2.02513950365437
H         1.03592910870883    4.87745689425451    2.23079031359648
H         2.26491649127158    4.59882722978308    3.45602440863484
H         1.10220323102539    4.36351593534094    0.01877925862053
H         1.92441891618561    2.86218001860609   -0.41318160849038
H         1.27523140369505    3.91546272749050   -1.67102066147833
H         4.43095199602050    3.24815355766373   -3.45463131017932
H         2.99207998021415    4.20044396606171   -3.80475490379694
H         2.91406365641505    2.84910921176106   -2.67131193373576
H         6.24972606508807    4.40801717836820   -3.41161649817776
H         6.57174816421658    6.12887599486851   -3.35990262226950
H         5.12564814804390    5.53213113397956   -4.17289166986505
H         6.33249002483711    8.19078072107891   -0.51812997993410
H         6.37418672161261    7.82205500869175   -2.23099698726862
H         7.43008984021136    6.94552693239161   -1.12203191524516
H         2.42974791950569   10.10820469217431   -0.79912308755523
H         4.00390070788088    9.38513875009953   -1.33742298349411
H         2.81123117188251    7.31620049173313   -1.99247889789030
H         0.58757108596176    6.85871439741629   -1.00536664404039
H         0.41514530949718    8.62004081957021   -0.60720598512228

