37
CSD_code = NEZWUK | q = 0 | S = 0 | Stoichiometry = C12H19N2O3Re | MND = 6
Re        0.93325798733838    2.58951523127239    1.83491227247112
O         0.58054718118022    4.17617392323196    1.42306193613327
O         0.15941472642566    1.33862119385299    1.05325601642833
O         1.14682132170239    2.53290523783227    3.49696934681132
N         1.42103869340525    3.04766845760047   -0.98307890490715
N         2.39447795406600    0.21127930977920    2.59451402832699
C         3.06414243028865    2.63966044198412    1.29216649206091
C         3.49662161802767    3.39224050357099    0.19850560698195
C         4.85712577279814    3.51979342647450   -0.05838538953313
C         5.78731827742605    2.88441673074139    0.74239510368307
C         5.35684175464799    2.06620252311011    1.76970873741976
C         4.00068056810795    1.92620921422188    2.04271423747228
C         2.48338019881488    4.01083100352259   -0.72530380912606
C         0.26459113446303    3.66452705378335   -1.60340217805518
C         1.88823122593667    1.91920286959622   -1.76428383745902
C         3.52991398382799    0.96910049877390    3.10350423075683
C         2.77762334662962   -0.69226672706932    1.52734043296060
C         1.69587020898652   -0.49818028817386    3.64869415311033
H         5.18196023575628    4.11431806678546   -0.89965819862732
H         6.84219201520082    2.99553042442569    0.54238818414410
H         6.07408913892191    1.51929984210329    2.36395156486622
H         2.02849086135943    4.87242781779520   -0.22344750813370
H         2.96514845584979    4.35806009850931   -1.65481687917537
H        -0.11511303463895    4.44669606244482   -0.94942859169931
H        -0.51130870067030    2.91171330158413   -1.72730488335975
H         0.50469863881074    4.09636118701887   -2.58692636260569
H         1.10616766043533    1.16298151955955   -1.79185828532723
H         2.77084315028024    1.48626005024832   -1.29657263463420
H         2.14190117319239    2.21054896402003   -2.79548615872401
H         4.35499063138093    0.31386210140529    3.43005457242094
H         3.17756753493750    1.54531694242542    3.96663400616887
H         3.32511872566167   -0.14704839157814    0.76042939336719
H         1.87740010312193   -1.10800280728497    1.07896430253946
H         3.40927228712181   -1.51631782139190    1.89400633391127
H         1.34417127430327    0.21862311049707    4.38762668821446
H         2.33883645898548   -1.24345734090271    4.14108164813090
H         0.83267500591791   -1.00337373177064    3.22017433298806

