63
CSD_code = NEZZEA | q = 0 | S = 0 | Stoichiometry = C30H28Cl2OSiTi | MND = 8
C         7.82262126820524    6.83366951407331    1.15740806290497
C         7.17836283362040    5.64301182290492    1.59200819616661
H         7.66782247794633    4.83858625010897    2.12670426272716
C         5.84490617321946    5.62710027052863    1.14888295471754
H         5.14328311803759    4.81067560202683    1.26325855079372
C         5.64687348957842    6.78012848923013    0.32590673964145
C         4.54521191547014    7.23493772866390   -0.42027316699138
H         3.61088494736705    6.68838696669391   -0.39837805421674
C         4.69152082537404    8.36246555905396   -1.19053486539482
H         3.85912040694704    8.72377501281048   -1.77619795470976
C         5.91225089577419    9.05527786720693   -1.24565451460429
H         5.98786312955030    9.92624502986554   -1.87969411609397
C         7.00015588107293    8.64996675312827   -0.51248262736760
H         7.93494550740046    9.19161724769948   -0.56018633478906
C         6.88547191709728    7.51088515989573    0.30127863263728
C        10.66787119122475    7.52609347226579    0.06654940124411
H        10.74842468894884    6.57367263140318   -0.44776810150611
H        11.67003240081356    7.83573019519495    0.34354548628016
H        10.28609682875610    8.24990081746289   -0.64569314350497
C         9.42897966414518    9.06899716373920    2.52169641885997
H         9.02281332167892    9.84138682674422    1.87315451547533
H        10.39183636506685    9.41733044813898    2.88440776943608
H         8.75634355482825    8.98714458895851    3.37743424217280
C        10.29751345209076    6.09987157712930    2.82134715796808
H        10.34269387495938    5.11038985358907    2.37644573885404
H         9.70641938907880    6.03235277696981    3.73138203685605
H        11.30820243853968    6.37337957502034    3.10653524376704
C         7.43922236569690    6.99913859295357    5.23087153454600
C         7.74652952266011    8.09556953298627    6.05962977225338
C         8.48742635414888    7.88541858580681    7.21498185544201
H         8.72320551940796    8.73090835585411    7.84382580987025
C         8.89278502907198    6.61220125208367    7.57517164946006
H         9.47169117027784    6.46361637574028    8.47380071595243
C         8.51859003629972    5.52441314378354    6.80647189569717
H         8.77755690378130    4.52350282554276    7.11835263196150
C         7.78131483586587    5.69491481274195    5.64119705670382
C         7.21052629779059    9.42403629179463    5.71716249312126
C         5.85314633725380    9.55234391796177    5.41959804271208
H         5.21045272162474    8.67596430920815    5.43073382726401
C         5.31703158333893   10.79856198130497    5.14708383775265
H         4.26470217499659   10.88867325550662    4.92099016958850
C         6.12744482407784   11.92154307157520    5.15324341691937
H         5.70873510365303   12.89115426968750    4.92899043892876
C         7.47603784293295   11.79933539053417    5.44343882630153
H         8.11033872111512   12.67376699538899    5.44490609523175
C         8.01554860046912   10.55949758532902    5.73174639517821
H         9.06890699398205   10.46155004401568    5.95328108003828
C         7.30463756229975    4.54131671090055    4.86066875397882
C         5.96959309301800    4.49115109455348    4.45474519872826
H         5.29019092321497    5.29291000160323    4.72425442135860
C         5.49642478230762    3.39525264438609    3.75410195462250
H         4.45596570831207    3.35794125105993    3.46567347093096
C         6.34665659599536    2.34787847337731    3.43713393812269
H         5.97678156821893    1.49569668864050    2.88660586852819
C         7.67251766806131    2.39231405801048    3.83655650687602
H         8.33729214161477    1.57593130766178    3.59452368873151
C         8.14889563400534    3.47780761455815    4.54972539905577
H         9.18421630266948    3.51156333814799    4.85707676515408
O         6.87831650734087    7.19951389771163    4.04517024871846
Cl        6.04751467800955    9.60297421125771    2.29579927256520
Cl        4.04742227191036    7.20997780653068    3.11261457995070
Si        9.55942294028601    7.38986489184026    1.61697223257454
Ti        6.16693672741905    7.45001621945774    2.56531762386006

