80
CSD_code = NEZZIC | q = 0 | S = 0 | Stoichiometry = C33H41Cl2NO2W | MND = 5
C         2.42583251482197   17.71381374502619    6.77417614152043
H         1.68382302063314   18.43325722194869    7.15674170659655
H         1.85782253896470   16.83351427305056    6.43353880162776
C         3.18314609568117   18.32775015093691    5.55519016250215
H         2.82904867347342   17.92025217211885    4.60158370080345
H         3.04936992013201   19.41420170585218    5.54091569663329
C         4.68440193247402   17.99191600905102    5.81396028761223
H         4.99324222950001   17.15139736332737    5.16637517412860
H         5.32160869426228   18.84930731847204    5.55256508390060
W         4.31682556575939   17.39922219770826    7.86181106803721
N         4.06160564846168   19.05295163670643    8.58325198611665
C         3.38310248152941   19.76353999532506    9.47452485713428
C         3.25950792980246   21.17273989058223    9.50572422911137
C         2.53974277530793   21.82800951176020   10.48044155493984
H         2.47657873152466   22.90493658284669   10.45664505967727
C         1.90176084647363   21.10749863626518   11.47978077377155
H         1.34276767363592   21.62539078712645   12.24159938860784
C         1.97626619487015   19.72084561296398   11.49549955302174
H         1.47813403685901   19.14778241165288   12.26032931240573
C         2.69511605162828   19.07750396981821   10.51640609903113
Cl        4.03151862578381   22.06714628998488    8.24676907268279
Cl        2.83780408048225   17.34208524993443   10.44458091840361
O         3.98379621020334   15.56407820183322    7.52734106651474
C         4.45544640212692   14.39752065503833    7.98094511613464
C         3.62875419518879   13.30859183451006    8.31365244227471
C         4.25050558426182   12.17287040695909    8.80924806384699
H         3.65131983807578   11.32113843948582    9.08750713151018
C         5.62320375733377   12.06915352216733    8.98128808011185
C         6.44637634077412   13.13071291862438    8.60548499541782
C         5.85552136162036   14.27524088569747    8.07793005858916
C         2.12346573855781   13.38817058728864    8.09771505147776
C         1.86336480728498   13.61448038239598    6.60098076440787
H         2.37460490163446   14.50984743921147    6.25451237596046
H         0.79720071114055   13.73008887870817    6.41581826680538
H         2.22653577572782   12.76565953710023    6.02406885913003
C         1.54467673755958   14.55376089238318    8.91103484448480
H         1.77594013077353   14.42950543823859    9.96755750614593
H         0.46308635906371   14.59254018804186    8.79641477722870
H         1.95640035969999   15.50632774308897    8.56894758230949
C         1.39373160476096   12.10972845691561    8.52052554782472
H         1.74118829757916   11.24987732409816    7.95237403167961
H         0.32865942044083   12.22776136731452    8.33073701133146
H         1.52624285760029   11.91556830779789    9.58234502840437
C         6.21166081905197   10.81435741876475    9.55481216239504
H         6.94496515642495   10.38332008610102    8.87377861483998
H         5.43529208919885   10.07619084036414    9.73880151665882
H         6.71760199507422   11.02192887803707   10.49766820943604
C         7.93109563669141   13.03730418459991    8.79701805100352
H         8.15681594846915   12.76630060616724    9.82753745199827
H         8.41661194857732   13.98342035002609    8.57500071297046
H         8.35476400162008   12.26639299045197    8.15306662048948
O         5.55690702273746   16.69145163048123    9.26874466444870
C         6.52008568433763   16.64860710106352    8.35009953508717
C         7.41884046041552   17.72279822981665    8.08829074894678
C         8.24845788995887   17.58477577516145    6.97672034218697
H         8.90660905815904   18.40110308544721    6.72030547658620
C         8.28277887268105   16.46173626425811    6.16708717439614
C         7.50516151662995   15.34833628230048    6.50586618672666
C         6.66090142192826   15.43380061721757    7.60736497696428
C         7.61201245430315   18.95202623456714    8.97572313240837
C         7.15136905551155   20.19579327538872    8.20324719321444
H         7.25718454653105   21.08354444853667    8.82261904090697
H         6.10065731283215   20.08467782339037    7.92375764914650
H         7.73668620789651   20.33732052124592    7.29766011282534
C         6.84611436747254   18.87007105661713   10.29930019952710
H         7.12189132920697   17.97459736560810   10.85227622600897
H         5.76910256319630   18.86007489491768   10.13187709365985
H         7.08457796995213   19.73975538001167   10.90958286215764
C         9.10492299342974   19.08301616688404    9.32874886400012
H         9.24226791911981   19.90928621936645   10.02236573571812
H         9.71867305580622   19.27756540238586    8.45442659727579
H         9.46291428512858   18.17203568583158    9.80361712087362
C         9.17492533426477   16.43047857116415    4.96413867617709
H         8.58829330203480   16.29760095490577    4.05535257814130
H         9.87909815017484   15.60166904693249    5.02654364592829
H         9.73664375691700   17.35675009002930    4.87767473637831
C         7.56605298386830   14.10513478243675    5.67018764840352
H         7.37285470445409   14.34703103348608    4.62562594598199
H         6.83015128687514   13.37818471204848    6.00155852753360
H         8.55560924557761   13.65237585468229    5.72681473869835

