42
CSD_code = NEZZOH | q = 0 | S = 0 | Stoichiometry = C17H23ClRu | MND = 10
Ru        1.96116306930451    1.78745197359858    2.75329081492640
Cl        3.92208506601985    3.11334926113775    2.41645265541710
C        -0.03640363292274    2.76768344643250    2.26392892739385
C        -0.15880902023548    1.86358952267528    3.37813765970750
C         0.60243521502511    2.40720328047219    4.47339911908257
C         1.28042985759467    3.55242016823706    4.00383824896207
C         0.88256075635730    3.77675147541567    2.62298036893081
C        -0.85430452532983    2.74350430870148    1.00797101125288
C        -1.20763185627834    0.80079816350950    3.50720468102109
C         0.55966883470137    1.94571434433286    5.89899070375148
C         2.07151526329634    4.53156923699622    4.81118250469067
C         1.21942443645808    5.01176483407744    1.84975482645020
C         3.44615585653211    0.32983036064350    3.30729257776468
C         2.16836010768913   -0.18722309647906    3.56598165747198
C         1.77650102631869   -0.99803180327993    2.33499667479819
C         1.54970140476308    0.17994035246914    1.39309388277108
C         2.81834558061770    0.70241622305956    1.10252906746326
C         3.80849544910398   -0.15237893041253    1.89940002502354
C         3.13449701452451   -1.53071455174139    1.85829359533895
H         4.19636729796079    0.56946020128431    4.05333179053451
H         1.76768049832580   -0.38926284643511    4.55291141479743
H         0.96238010012050   -1.71025736608723    2.44640008789432
H         0.68342009470370    0.25428165860168    0.74544369848318
H         3.09695724020913    1.22238939289861    0.19212685503099
H         4.85453003070805   -0.08261383420637    1.61327824082675
H        -1.33927310114551    1.78068058086208    0.86698174712390
H        -1.63254624432403    3.50676336435812    1.07104609484903
H        -0.24294076239842    2.95669872173391    0.13241007240371
H        -0.91720001978805    0.04248216915244    4.23094577658541
H        -1.39082193985682    0.30650288213286    2.55567174324748
H        -2.14515023548645    1.24927555829735    3.84307038439196
H         1.55207786867707    1.95187069515471    6.34723230987528
H         0.14803230732235    0.94275274728097    5.98110102743988
H        -0.07680464139201    2.61943296623024    6.47628996550583
H         1.50850167602818    5.46089811602906    4.91513407427369
H         2.28825932572518    4.13931259376331    5.80182390899571
H         3.01296934501708    4.75834919251834    4.31051059160377
H         0.76146942685641    5.88017855336721    2.32675608924673
H         2.29896592427994    5.16229346994418    1.83341503982018
H         0.86057699460751    4.94361515749801    0.82558481369363
H         3.09762080571228   -1.95734556269664    0.85583729353198
H         3.58043810459756   -2.24399698152910    2.55157797762706

