71
CSD_code = NIBBEF | q = 0 | S = 0 | Stoichiometry = C26H32MnO8P3S | MND = 6
Mn       -2.44925345631906   -8.43482102375101   -4.21552723149572
P        -3.49129817370011   -7.74117118169161   -1.16505194948888
P        -4.02828562988224   -9.98010110782931   -4.10040961473655
P        -1.04058259083021   -6.88357910469590   -3.47717077311437
S        -4.27351825735139   -7.18199504406709   -2.88872968317107
C        -2.92761042222299   -7.51164753694025   -5.65042359598788
C        -1.26191221491947   -9.23124686499152   -5.23369558355031
C        -5.67874321638511  -11.18383147949964   -2.44367570828395
C        -3.22183475117438  -11.88004672753936   -5.72124196136245
C        -6.06375210090427   -8.71264478618493   -5.31833779213543
C        -0.94780240629376   -4.33083345391197   -2.80905090726473
C         0.04976462546477   -6.22242707451355   -5.82619556470121
C         0.90727448123847   -7.99401760593984   -2.09635601668115
O        -3.13163005985413   -6.93214583265948   -6.63199329850442
O        -0.44260121342220   -9.68675139962771   -5.92928689609180
O        -4.65451285943161  -10.21673570142431   -2.63065912387933
O        -3.68031146254139  -11.51111291992224   -4.43095519420473
O        -5.35490386021982   -9.90630742154799   -5.04951926491403
O        -1.72826942315313   -5.47510673502412   -3.13224536486658
O         0.20729359257237   -6.46502204665687   -4.43801953441894
O        -0.15155800739327   -7.05173516604703   -2.14179961384568
C        -2.33245036622062   -9.11362542364478   -1.29258846455823
C        -1.92879887701953   -9.51539049176780   -2.57692243121461
C        -1.13526357612162  -10.67434445128312   -2.59569012544540
C        -0.75095271206017  -11.34085650728325   -1.44694282172068
C        -1.14419986734410  -10.88399281770849   -0.19734577256444
C        -1.95279381407796   -9.77005003849690   -0.12071423613634
C        -4.82997585890907   -8.21354007067158   -0.01770424815798
C        -5.68453893158966   -7.21275090612970    0.43329990028195
C        -6.75685048244735   -7.53060355940610    1.24544071297028
C        -6.98536455909867   -8.84812778264591    1.60907217331834
C        -6.14098115580439   -9.84660330757819    1.15348637161312
C        -5.06656435555448   -9.53467666681274    0.33864375974713
C        -2.71798885471754   -6.31776085098031   -0.31900111307742
C        -3.26469080007170   -5.05777762418386   -0.53627255816925
C        -2.75330959312453   -3.95806601084525    0.12710535111604
C        -1.68392285114140   -4.10869381157108    0.99543158492502
C        -1.11985386567784   -5.35888009328196    1.18870760731396
C        -1.63575057169496   -6.46534435342965    0.53735980483087
H        -6.40814030015684  -10.76136545085638   -1.75032187947246
H        -5.24751514880082  -12.09304903437021   -2.02160564052631
H        -6.16617446715281  -11.42518849576806   -3.38897236962366
H        -2.61269810755778  -11.08555757900506   -6.16098579018504
H        -4.07217117577029  -12.07963216626240   -6.37598859910655
H        -2.62464533850424  -12.78424616184005   -5.60171889303904
H        -6.68787862921765   -8.90987144688554   -6.19046661419105
H        -5.37904631792951   -7.89006517816687   -5.53535189354520
H        -6.68882988431327   -8.43216311626983   -4.46752086034798
H        -1.59408654969200   -3.46589696283217   -2.95526427932866
H        -0.07434912119139   -4.25789127207899   -3.45924815575493
H        -0.61708782425653   -4.37575167764838   -1.77080397616223
H         1.01426646481356   -5.85931125109613   -6.18232307738238
H        -0.71978553262367   -5.47028900297297   -6.01167777787984
H        -0.21375163796532   -7.14122270627501   -6.35410417020925
H         0.98468949572125   -8.34748614248663   -1.06706939464164
H         1.83866057563191   -7.51090167885792   -2.39504670959585
H         0.71398829585729   -8.83867912846658   -2.76026961311561
H        -0.80805496690610  -11.07364939779385   -3.54860710024856
H        -0.13968043317439  -12.22970153174402   -1.52338510033956
H        -0.83947992371993  -11.40141564527300    0.70135590602579
H        -2.30454429208051   -9.41354698957961    0.84046559981222
H        -5.50690749172160   -6.18622299453120    0.14550297803897
H        -7.41654236073922   -6.74979280070475    1.59441070643236
H        -7.82310597538770   -9.09620800299283    2.24391951194000
H        -6.31998500554131  -10.87541176483947    1.43109104547750
H        -4.41387096476124  -10.31498858875682   -0.02250034314363
H        -4.06787622323920   -4.94515866619962   -1.25263900956304
H        -3.18311208571734   -2.98094930087702   -0.03889104745962
H        -1.28121087860720   -3.24923575176392    1.51118336594589
H        -0.27315480068485   -5.47367911002675    1.84990807515153
H        -1.18652089520777   -7.43600602079979    0.68440428361084

