74
CSD_code = NIBBIJ | q = 0 | S = 0 | Stoichiometry = C31H39NbOSi2 | MND = 13
Nb        1.68049661816409    2.54448350827842    4.61363999415370
Si       -0.21413043166303    5.99033251812772    5.01227515743564
Si        3.64178389639802    0.44244922304105    7.27630060871624
O         1.99183441751944    3.60577001033333    6.35891816548330
C         3.04657672081855    3.75381736409388    5.65089380390724
C         4.18056012216532    4.44862467768995    5.88988644854494
C        -0.09243834874977    1.95269047948870    5.89665732526557
C         0.44262220204492    4.57048755749264    3.95051058028060
C        -0.27371781853427    3.46251647907550    3.42126491523166
C         0.49660219314378    2.86132621484358    2.40716720123481
C         1.69534423291995    3.58867711910366    2.28622376531675
C         1.66980084336930    4.62796991761863    3.23548640491788
C        -0.76365618316367    7.33423202823441    3.76189854306013
C         1.14903429654277    6.68555026954628    6.14771986015170
C        -1.73366443760663    5.46535820894787    6.04512670127614
C         3.00499662181695    0.66231240253087    5.51092319728393
C         3.74380832864468    1.22042119102541    4.43031462045756
C         3.04655989775652    0.98159785130856    3.23220023724863
C         1.86207459882223    0.28522138293400    3.54753321714935
C         1.84530754505476    0.07585775337042    4.93967718564883
C         3.91277714152674   -1.43387477525518    7.53810673169666
C         5.30546455170769    1.36148640106206    7.44360361347276
C         2.38210610053338    1.07858213102368    8.56523374030140
C         4.27528891118793    5.30018895084820    7.09480013118655
C         3.75330850466381    4.88909655891875    8.31861966981072
C         3.80604809513875    5.72100552813036    9.42142993300507
C         4.37813571744917    6.97810302308497    9.32332864056927
C         4.89607383658961    7.39927083918699    8.10941958467951
C         4.84436018147476    6.57099722767463    7.00525259099121
C         5.33717480696956    4.38246065884036    4.99464239618794
C         6.62791918527418    4.56368836735813    5.50283460095911
C         7.73710337040928    4.46432212761178    4.68666109959948
C         7.59421256785075    4.17718806179446    3.33882354422469
C         6.32441728228002    3.98638197953240    2.82023986034273
C         5.21282529484952    4.08585667645877    3.63507736539498
H        -0.65093498426921    2.82507443595648    6.23499751348963
H        -0.78063552150630    1.32235627905934    5.32491929449999
H         0.18097509511830    1.39803444724773    6.79414409741607
H        -1.30492415359070    3.22529896318262    3.64448648389284
H         0.16231319401252    2.07720985782331    1.73924464920013
H         2.44131993587423    3.45118110180767    1.51430276301229
H         2.38138695781791    5.44010094562450    3.30559625234748
H        -1.55121567190358    6.97555211146227    3.10623017447674
H        -1.14296309117630    8.20637750342670    4.28369985348555
H         0.06072063497810    7.65953805183209    3.13481828203610
H         2.01208861877030    7.02582377142748    5.58251971794032
H         0.78573235936909    7.52793678317216    6.72807790927365
H         1.49645356380787    5.92691453854104    6.84347938129439
H        -2.45312017699208    4.89898709973873    5.46119796093845
H        -1.44190497995117    4.86067655557896    6.89826684554053
H        -2.24531196436384    6.34287509241297    6.42762871577154
H         4.74598062237257    1.61845417248618    4.50421019355948
H         3.42329692564465    1.16897413269820    2.23510694762094
H         1.17534820137932   -0.15619754854875    2.83593055871122
H         1.14098961107286   -0.55122665685306    5.46903435485332
H         4.62562384555258   -1.83598440754713    6.82529526695320
H         4.29932156167536   -1.62612823976050    8.53314212189905
H         2.98992128928256   -1.99519833520963    7.43056030301656
H         5.19816595571474    2.41868682681577    7.22010464595584
H         5.69309628557589    1.27473831846262    8.45383809275370
H         6.05645128765901    0.95607450026733    6.77147264210553
H         1.95394860430712    2.02811852624087    8.25059001384843
H         1.56552315017721    0.37619892202971    8.70925221929944
H         2.85501748732180    1.22626101153475    9.53174330445857
H         3.30789490763055    3.90969284232647    8.39962085679122
H         3.40057173759647    5.38492547364375   10.36529458481565
H         4.41816095016330    7.62750839066346   10.18578819808158
H         5.33733998993293    8.38216619516203    8.02212310679678
H         5.24086373808048    6.90961377872905    6.05825350531281
H         6.75778208315864    4.77335845905246    6.55464826321987
H         8.72319451304461    4.60716487491000    5.10537173314959
H         8.46223766686463    4.10133196386999    2.70061108404067
H         6.20094001355644    3.76150061679374    1.76958832393485
H         4.22863889284887    3.94327873057398    3.21401834902975

