42
CSD_code = NIBCIM | q = 0 | S = 0 | Stoichiometry = C18H14ClN4O4Re | MND = 6
Re        9.20949052922695   -0.53918017952259    5.50543486643857
C         7.84208392668212    2.22687662722353    6.28614207203921
H         8.66163284286785    2.28855072608976    6.98994587337227
C         6.98629819899663    3.29909561027573    6.10137124353859
H         7.13915109441977    4.21024599204844    6.65665856810751
C         5.94590226590234    3.18024410207480    5.19111842921552
H         5.26436942544424    3.99925536031014    5.01901275193753
C         5.80178654001024    1.98991039317937    4.50422382148234
H         5.01134408709838    1.84725305814955    3.78429708492441
C         6.71068903221807    0.96359612132957    4.74222903270595
C         6.66198356779813   -0.31070645885547    4.05901422577932
C         5.86378145031003   -0.86426932265203    3.07634568866248
H         5.02214464079053   -0.48987710067212    2.53429345626204
C         5.96112008954803   -3.10173271426319    1.92677160206615
H         6.03319564847739   -4.06755184193795    2.43509272064840
H         6.67069040170172   -3.10133602048150    1.09241155100200
C         4.56513785773748   -2.83524035204281    1.43877286190158
C         4.34653518327538   -2.21822565553329    0.21659244414111
H         5.18731794846778   -1.95571404011214   -0.40918825278431
C         3.06548909930811   -1.93053978068545   -0.22233923037711
H         2.93621946800853   -1.45338392643577   -1.18046869405795
C         1.97028193905184   -2.25777900002654    0.57154156862486
C         2.18788369885805   -2.88008950263673    1.80463155429175
H         1.33071705510404   -3.13226777894098    2.40784860586431
C         3.46650494945044   -3.16312420791814    2.22933956314719
H         3.61841342289201   -3.64502020727775    3.18411795577603
O         0.67571233549907   -2.01942245344719    0.24992698493109
C         0.38394757660103   -1.40074032960676   -0.98162651439770
H         0.82254061314370   -0.39957306272086   -1.04187081625922
H        -0.70097813584429   -1.32036572123394   -1.01976057744858
H         0.73171656264367   -2.00347968660822   -1.82625827685123
N         7.71841645150224    1.08233665898562    5.62501275766327
N         7.59821307988146   -1.24571425643638    4.37066104465795
N         7.41536972588239   -2.29952449275877    3.66611966368583
N         6.37782924423986   -2.09245433665708    2.87534013977851
C        10.66209746357013    0.47706741379022    6.30965630840391
C        10.41243961381309   -1.98860113361827    5.00216010405713
C         8.65914766863874   -1.37060121759304    7.17118638973296
O        11.50008637526395    1.15833144013842    6.68845089777225
O        11.09337515594051   -2.81136839003849    4.59662755493427
O         8.30178133061386   -1.84343324232727    8.15674898040743
Cl        9.64424057497228    0.59245290945053    3.44411399421612

