92
CSD_code = NIBHOY | q = 0 | S = 0 | Stoichiometry = C32H57FePSi | MND = 8
Fe        1.52576580771564    5.30761048555662   16.94669981932548
H         1.48571558780337    4.99083782969368   15.44192298418670
P         0.87424917435449    7.34014132650743   16.48641128651118
Si        3.55732205617317    5.64753131912890   16.26466381520064
H         4.05305353009773    6.53114029454675   15.12547934080699
C        -0.21574711295982    4.34943294395590   17.69483807871035
C         0.42744742875390    5.04711611293803   18.76479582936799
C         1.74195528253152    4.52838855391051   18.89315549954691
C         1.90091274643147    3.47060892019073   17.93999289764701
C         0.68244667303363    3.36092604928072   17.22025932179896
C        -1.64909433147829    4.41774877135846   17.27723811956028
H        -2.18016359278063    5.21621824494826   17.78896998864688
H        -2.15077676572053    3.47496860917942   17.50508331397044
H        -1.71961679443701    4.58021897795378   16.20275238004720
C        -0.23632970487026    5.90039802882013   19.79849311487985
H         0.37415866477914    6.75820746110877   20.06794256167489
H        -0.38571164851907    5.30523931588720   20.70263264560987
H        -1.21044152181125    6.24880868653415   19.46717976141161
C         2.70389670262836    4.86043853827038   19.98922128481455
H         3.73020921241097    4.71906213202529   19.66116472123251
H         2.52991399289477    4.21412456677532   20.85219830582563
H         2.58505788205066    5.89126674112319   20.31373797847036
C         3.02149443856291    2.48180483049082   17.92429062457803
H         3.19583217446139    2.10064769314388   16.92228857802883
H         2.77700459077645    1.63784144549239   18.57394382341461
H         3.94779284043140    2.92796248296724   18.27714681993812
C         0.33566314035658    2.34393871855984   16.18702612163136
H        -0.11106923369466    2.82896873360085   15.32218117360973
H        -0.38539158517656    1.63061116747907   16.59222045382176
H         1.21726966520726    1.80279072316612   15.85896933499997
C        -0.81867825103239    7.86797823492195   16.99813634392719
H        -1.53043795229741    7.11643729186166   16.66855942437111
H        -1.07592764496489    8.83288222178126   16.56455198190629
H        -0.86443968233931    7.94447185543900   18.08007716854826
C         0.75843550694668    7.69045888179015   14.65027943657321
H         1.73515104351145    7.37794737607437   14.26229857648211
C        -0.28697854333250    6.74993019246044   14.05858332360855
H        -0.09976989549715    5.74661163888267   14.43041228199667
H        -0.21770188854963    6.73562748197457   12.97220383101976
H        -1.29452267012759    7.05347368450049   14.33384950643683
C         0.47363502382168    9.12995845062369   14.22768326926832
H        -0.51894573060193    9.44246540153278   14.54442629297862
H         0.50481929605781    9.19380842028175   13.14044561699528
H         1.20172206152540    9.83069520133242   14.62574690523547
C         1.79910998884734    8.84135239443913   17.14987980904605
H         1.15911807656662    9.71554568974675   16.98866586647604
C         3.15678487104256    9.08817814745151   16.50311350032600
H         3.87713252682580    8.35502778175736   16.85658152391018
H         3.51990278504006   10.07936503719224   16.77471370555428
H         3.11106568744241    9.02512426033397   15.42003748830640
C         1.99903363773086    8.62219106289318   18.64434219662797
H         1.05724964614178    8.68335200966266   19.18309079096590
H         2.67285341355812    9.37010827781533   19.05969288395195
H         2.43347329041311    7.63316109449045   18.79581972045277
C         4.92023987940365    4.33060129824575   16.07071207230386
C         6.03481351665263    4.44311523076088   16.90493839402178
C         7.05500620387810    3.50727698318133   16.82947012754876
H         7.92169318922217    3.59956043665259   17.46750483567093
C         6.98996744023658    2.44453454010939   15.94203524976406
C         5.87861149871965    2.33654264734586   15.11852897853807
H         5.82306781687175    1.51619436181321   14.42065414379267
C         4.84464171991295    3.25742282787405   15.17276577753528
C         6.14014145540593    5.61899796174987   17.84499810362678
H         5.12331475769996    5.98005679386778   18.03462601449326
C         6.90908916693407    6.74890132588019   17.15972253087995
H         6.42344003971397    7.01750179035163   16.22605540755077
H         7.92670388054841    6.43268293092029   16.94184985037819
H         6.94841104023367    7.62779236822379   17.79979354465377
C         6.77947461908807    5.27206437204392   19.18980672292362
H         6.32569579748576    4.37802786813842   19.61190040056951
H         6.64023658522676    6.09368567909811   19.88931479243620
H         7.84760416699850    5.10024106598788   19.08577601600836
C         8.10804765428846    1.43267315982481   15.87802303147378
H         8.87080325812976    1.71968556122704   16.61124142132924
C         8.75952474353372    1.42577532995345   14.49367661125356
H         8.04806835328844    1.11282994710765   13.73366478978814
H         9.60370037584315    0.73932653474433   14.47647609636739
H         9.11635204170723    2.42152460890687   14.23923090936765
C         7.59854359885952    0.03716744198095   16.24481012596893
H         7.13529529360619    0.05079414686754   17.22918742729614
H         8.42142619356251   -0.67470782852878   16.25821899842388
H         6.86028380174154   -0.30585099660322   15.52428367019314
C         3.65960508785219    3.14888284639901   14.24407294028371
H         2.79146756438066    3.57663954728598   14.74843431073666
C         3.92793017136865    3.98355699851304   12.98875040114659
H         4.13709619729470    5.01508680563331   13.25821307666100
H         3.05622124589775    3.96971616443290   12.33835861177553
H         4.78210637709456    3.58548372799286   12.44244950242812
C         3.31683096636069    1.71372263233040   13.84290716881724
H         4.03755789962380    1.31714611882007   13.12984549624048
H         2.33684158964071    1.69257963834148   13.37054318899039
H         3.29374091487698    1.05611533875144   14.71056783452907

