63
CSD_code = NIBJEQ | q = 0 | S = 0 | Stoichiometry = C17H26F6FeN4O7S2 | MND = 6
Fe        4.28618070473244    3.45892284319191    6.01176289623654
F         2.29599280714281    3.83029767186426   11.25273585778432
S         3.57967470401566    3.97494143554848    8.95578549044048
O         7.27180167614854    7.86104640598489    8.54479551185412
N         5.25407722648879    4.81455109256362    6.66795019758312
C         4.80495611859260    6.06768434122820    6.63398505323927
S         2.36365594302300    1.35683281700036    6.70301021102058
F         2.25255989334455    1.97833714516060   10.16496522580866
N         5.97617171961037    2.37071932882531    6.35215365931056
O         3.56277014481053    3.08661723744836    7.79169454677158
C         5.48587901859642    7.09712468689446    7.24392674952051
H         5.11531634288777    8.10766623839728    7.22100306537156
F         1.01495918396091    3.64569104401915    9.54168244648772
O         4.77032080681710    3.84630271045462    9.74985731509141
N         4.96572283183640    3.57416609536342    4.16798647181856
C         6.64832687042897    6.81360567700873    7.97144244121704
N         2.95829308518232    4.90608461719780    5.53826139891035
F         0.96183917562174    0.70328314193617    4.51202264809900
O         3.16398021059148    5.32221405201144    8.67963714840477
C         7.05990219116579    5.48229859600131    8.06223391640341
H         7.90148332107395    5.18453227201824    8.66337575298269
O         3.10695150860035    1.99146836859902    5.59371997857364
F         2.61633929050448   -0.61228477670440    4.91427228540958
C         6.32185582349988    4.51863356335284    7.40479220182693
F         0.76900327755303   -0.84255249196142    6.00394416414406
C         6.54064600158906    3.05009399300994    7.51294065025410
H         7.59671630827507    2.79249363487732    7.66803917703210
H         5.97020836276082    2.74290076839106    8.39310971210453
O         1.20441301506642    2.04398897993394    7.17446715277511
O         3.09942784325187    0.52147843951102    7.59852202428409
C         5.75729414789217    0.97050112606703    6.66309489375351
H         5.28278214318714    0.47942327043810    5.81841939007341
H         5.05560062577799    0.89643024080861    7.48742703036659
H         6.69263857169360    0.45863370998108    6.91275006184770
C         6.86604074171332    2.50420022699442    5.19126705484793
H         6.84167574673494    1.57688210697551    4.62121829231414
H         7.90207275714967    2.66972489096978    5.50858585445193
C         6.41285765333837    3.65270672089912    4.29953859281057
H         6.66349643633413    4.60428435967288    4.76547711444667
H         6.91325198518463    3.59750893812720    3.32226936792070
C         4.59394030078542    2.40099864287597    3.38730464199928
H         3.52317667856203    2.38936864047608    3.23113453241055
H         5.11066444848725    2.39352595651770    2.42183638174524
H         4.81676652174741    1.50231177940236    3.94523984025840
C         4.37246530311945    4.76866254391240    3.58314386188213
H         4.41029373765182    4.74636006568653    2.48715448147183
H         4.92680595845793    5.63878762089847    3.93491995682941
C         2.94123692027312    4.83646146375356    4.08472099977933
H         2.40621035278810    5.68967409438636    3.64438784033889
H         2.41508436676132    3.92105145845341    3.82391902041809
C         1.61818990307240    4.67823584113761    6.04878700442165
H         1.63554638674219    4.75023203694469    7.13053692467744
H         1.30667375743678    3.66976973577111    5.80278181405806
H         0.90646480795711    5.40287137875279    5.63930263590473
C         3.46228220075888    6.20913542654917    5.99650230751202
H         2.80568366990638    6.58142991893258    6.78392639379181
H         3.47206778918553    6.94207410458222    5.18206186952787
C         8.35083103551392    7.60841288853118    9.41947671935714
H         8.63887681822847    8.58023517674167    9.81622120818730
H         9.20049669874177    7.16801299414019    8.88868726902346
H         8.04921308272890    6.95313737629017   10.24049581061188
C         2.20351902288091    3.29489512046693   10.02307964824988
C         1.61197402204032    0.06602021473692    5.50705583394722

