106
CSD_code = NIBKIS | q = 1 | S = 0 | Stoichiometry = C49H46ClN6OP2Ru(1+) | MND = 6
Ru        4.64888035687807    2.10885740424023   12.75872087671075
P         3.24157398463640    1.27071318376344   11.07966602004494
P         4.62890108364580    4.43406665692145   12.27967530362818
Cl        2.84995175727428    2.11011755269759   14.27472753344270
N         5.00680861913279    0.18824195945887   13.45003090381322
N         6.20358639300994   -1.31781935399204   14.52337357991483
N         6.38757076368463    1.88630948098748   11.69060035021072
N         8.52327276397613    1.39697164382765   11.44261403666250
N         5.83361065220570    2.55151111210704   14.39106869966205
N         7.54008233834877    2.37923555074350   15.76487659865700
C         4.16859025844673   -0.78433752397492   13.89209732664959
C         4.89906875181097   -1.72447314132604   14.55063697476761
C         6.22951027895440   -0.15023051792541   13.83084490347236
C         7.40412046868743    0.81038168791895   13.69165442130926
C         7.44649670184364    1.34587454770806   12.27228712348238
C         6.77539492124856    2.27436767325051   10.44610058464999
C         8.09295894923561    1.97862332473335   10.28432464704553
C         5.61037947954999    3.37832137796772   15.44236997323047
C         6.66551162301297    3.28547981911202   16.29707646514350
C         6.99453365126098    1.95279026318963   14.60471247350524
C         9.88623243565315    0.97790355959258   11.65270879255888
C         8.79914537992429    2.05010815215191   16.38058582979970
C         7.27516785151249   -2.04960321329777   15.14998768176749
C         2.26654589499100   -0.23926261246035   11.45594568131231
C         2.46141410413111   -1.48188463433457   10.86584618124466
C         1.62488044287640   -2.53914170650725   11.18524232999976
C         0.59044733702013   -2.36809767755275   12.08827521831431
C         0.38474902994387   -1.12750791697791   12.67197008009969
C         1.21212005075047   -0.06731330933524   12.35499386318657
C         1.79915866489104    2.17573175977330   10.42464699968379
C         1.06549549604312    1.68494713667628    9.34664630074975
C        -0.06212508497902    2.36252188895938    8.92278340414763
C        -0.47789738200410    3.51131905947561    9.57998882403011
C         0.22437271291079    3.97457566433583   10.67976070122472
C         1.35710630107882    3.30344925852407   11.10369737245003
C         4.19522438054185    0.72982616495459    9.62163924932340
C         4.05821844436167    1.24843345426716    8.34061504115374
C         4.88778771273554    0.81315669764238    7.32041808824619
C         5.86025915865447   -0.14030681551943    7.56574845892213
C         6.01076970799360   -0.65740490800022    8.84319639243419
C         5.19040535262668   -0.21789947491100    9.86356000773988
C         3.25804373046196    5.59706981268653   12.63260760660838
C         2.46876748305186    5.37908697943815   13.76127950858758
C         1.45471985697525    6.26236477305869   14.08434853561144
C         1.21787375174971    7.37095716717460   13.28817635877847
C         1.99809661883607    7.59036537415186   12.16503425443221
C         3.01488495511364    6.71175090424813   11.83512285929505
C         5.06216126611329    4.97075993553802   10.58282303171114
C         4.30954985321758    4.43522051659453    9.54127521624966
C         4.53450096123218    4.82293386471090    8.23385148336156
C         5.52409988077143    5.75041058274897    7.94963924426541
C         6.27347976933470    6.29253905103933    8.98003306120157
C         6.04328612963146    5.91317556014943   10.29168079909165
C         5.97837249379761    5.24479215331458   13.22496810255901
C         5.74385460357433    6.20913476367094   14.19840222388855
C         6.79378583604568    6.72845442221444   14.93723394973641
C         8.08761944835906    6.28896305013306   14.71966256690039
C         8.33398179932185    5.33890817416770   13.74043242183342
C         7.28882040954076    4.82465190610261   12.99820990051350
O         8.62251240530602    0.24398991861024   14.08932929633408
H         3.11028408956181   -0.73637607666385   13.73473957344066
H         4.59991137011225   -2.63036405455637   15.03422813751510
H         6.09699960047764    2.73602726372768    9.75852731726096
H         8.74857226113782    2.13469964074999    9.45368224429819
H         4.71004853105907    3.95443892891755   15.52309995547395
H         6.86608138524215    3.77820017828639   17.22499520103318
H        10.22605881400101    1.24786897570347   12.65142221961234
H        10.51477099714597    1.48168055482154   10.92034423884471
H         9.99521935977986   -0.10020861134989   11.50908337835668
H         9.34399454860458    1.34140281811229   15.76564053988696
H         8.62510532464184    1.61595675839167   17.36663313056811
H         9.39341111830483    2.95734571616261   16.50004591615945
H         7.94056696017274   -1.37769805679244   15.69037899152737
H         7.84991381388784   -2.61665748494856   14.41296343816345
H         6.83943540128588   -2.75417610566121   15.85600540301478
H         3.25307522618500   -1.63465058137503   10.14698431670533
H         1.78119941432368   -3.49998121385496   10.71706498272950
H        -0.05845878128949   -3.19604683193696   12.33044242897025
H        -0.42429872145127   -0.98392842152512   13.37199403230313
H         1.06015569166384    0.89884130957900   12.81703028423146
H         1.37006638296953    0.77180983902796    8.85376356644739
H        -0.62654756000452    1.98818039366730    8.08163796097384
H        -1.36029245374253    4.03310561290677    9.24176114137065
H        -0.10856351794689    4.85267430534107   11.21247211842568
H         1.90355449573258    3.63195807876409   11.97742049485341
H         3.30088085164114    1.98876309135292    8.13279096453971
H         4.77054955847667    1.21867334658213    6.32666494203422
H         6.49891690550043   -0.48208529360987    6.76554442726292
H         6.76720287779369   -1.40509294948628    9.03707341942589
H         5.30876079104770   -0.60712321657783   10.86950694357951
H         2.62452446612564    4.49455093512508   14.36302862233577
H         0.84647684350730    6.07960563339283   14.95731392614689
H         0.42481457343190    8.05945765902799   13.53837256584813
H         1.81541211045551    8.45116240391542   11.53901738008861
H         3.61276658340216    6.89801045699385   10.95576269020559
H         3.53913022018039    3.71412446002124    9.77931120673989
H         3.93683956901638    4.40849107162881    7.43574676357788
H         5.70459923206321    6.05586943311521    6.93033538844383
H         7.03658902504126    7.02562249125665    8.76460751250392
H         6.62196143595363    6.36455600697202   11.08372518016673
H         4.73841238884272    6.55746829817076   14.38292520933828
H         6.59780639248756    7.47962555925433   15.68730029638907
H         8.90360589467221    6.69197742850707   15.30048003228789
H         9.34511276933098    5.00573044878322   13.55152629111993
H         7.48518522328378    4.10202719469711   12.21803792269915
H         8.80719549487403   -0.52989953324122   13.54364158770978

