29
CSD_code = NIBLIU | q = 0 | S = 0 | Stoichiometry = C8H12N5O2SV | MND = 5
V         4.16768073332558   11.90175120140406    0.57548668734700
S         2.16487080405279   12.95228579347630    1.15120076684705
O         5.01331745740333   12.57225464073968    1.65969088244274
O         4.29676100402425   12.52774994469981   -0.81434594752662
N         6.59648149749737   10.25539621150742   -0.04683335304100
H         7.14416465862287   11.09556947533609   -0.19092780321519
N         5.31635755688809   10.35746697598704    0.28429883075910
N         2.89987469389284   10.24029426582051    0.92434013706967
N         1.62726906206704   10.32890031881178    1.25366638484452
C         8.35580769496543    8.55377129586432   -0.49193787345138
H         8.95911526937027    9.42247579884299   -0.74144459444295
H         8.34529010655200    7.87454410587232   -1.34223028091187
H         8.81991237204969    8.03345352137178    0.34474361415512
C         6.97325904366925    8.96314478647223   -0.14137658360631
C         5.85602861573572    8.19974151509132    0.14967166276935
H         5.78959254156896    7.13142641647818    0.16939435421516
C         4.82912171418498    9.12553327718446    0.41353862351598
C         3.44635203909107    9.07550792876343    0.77393676064021
H         2.89451847657959    8.14972772896617    0.91024476832480
N        -0.12578780438060   11.71375724368326    1.71831886190655
C         1.16325771153636   11.56793634156203    1.38622741127579
C        -0.75414440031079   12.99675502226009    1.88897774761189
H        -0.03836748431318   13.78493860955116    1.67192279804572
H        -1.11007160471803   13.10449090979029    2.91643579134898
H        -1.60706491533079   13.08353848713641    1.21193281854872
C        -0.98369062826556   10.57421119405310    1.93524193338712
H        -0.41053273758446    9.66306668135894    1.79368115190775
H        -1.81699867541978   10.59565083037439    1.22890809081031
H        -1.38587480275344   10.60025947754033    2.95073635841986

