29
CSD_code = NIBLEQ | q = 0 | S = 0 | Stoichiometry = C8H12N5O2SV | MND = 5
V         3.08432145562208    4.74716337925247    6.15274049862722
S         2.56323944505337    6.45394676494727    7.72478984568823
O         1.69631623060718    4.28592012702581    5.70085321932200
O         3.85338487944738    5.51631973078214    5.07557931639015
N         3.93855900719383    3.04148359425942    5.73538706567082
N         3.84281867282151    4.29610446002315    7.92471055102453
N         3.84691896534358    2.60496107729054    4.48462541448986
H         3.34258669067669    3.16952894822895    3.80750849634966
N         4.54229191448526    3.32815968242967    8.53038690224982
N         3.75286791638165    5.49442636077383    9.93945703603687
H         4.21011007914995    4.70606976819336   10.38129598128400
C         4.52299980434709    0.71467427669179    3.02273935195498
H         4.94863462161395    1.35937755968910    2.25543281359465
H         3.51839343230779    0.43400024970917    2.70880372880055
H         5.12816093931487   -0.18307248584700    3.10622307503784
C         4.47711858792505    1.42280237397041    4.32530054072420
C         5.00086468604005    1.08995821309496    5.55710874546730
H         5.56718134962243    0.21742067187245    5.81070616550638
C         4.63810086011083    2.14173749409129    6.42541196817246
C         4.91686073955525    2.31729585512725    7.82967229457768
H         5.47866750096993    1.55535213392658    8.34966059504204
C         3.45058305894362    5.34009481451031    8.64635223665035
C         3.21577397040791    6.54661144209449   10.76733930591754
H         3.06540445802226    7.41939389453082   10.12701084180455
H         3.95517964751114    6.78561568284901   11.53567985811851
C         1.89027431154390    6.14066035098361   11.40566138919753
H         1.50938395895843    6.95343594472402   12.01679148985780
H         2.01772632612283    5.26108764124994   12.03332033986521
H         1.16157648990183    5.91776999352684   10.63015093257777

