52
CSD_code = NIBMIX | q = 0 | S = 0 | Stoichiometry = C25H24AuOP | MND = 2
Au        4.06937225142943    2.70770443509108    4.05462375854694
C         0.04659294279262    3.63317737682313    7.54595676480951
C        -0.60945998890723    3.69378216717578    8.79237989133052
C        -0.83898367169131    2.54373088548850    9.60458769207040
H        -0.50666288538186    1.58555233579802    9.23854558133363
C        -1.47007814062489    2.63542402163099   10.79858735006713
H        -1.63661891324791    1.75141519673184   11.39823667460880
C        -1.93139108744175    3.88433509465643   11.30372538585765
C        -2.58880285702399    3.99677304957888   12.53015445669226
H        -2.76082258537141    3.10635973195099   13.11817440180544
C        -3.01705035393117    5.22750052065739   12.99172761686685
H        -3.52541369216867    5.29688736594002   13.94292463076411
C        -2.80072056647326    6.37086467208793   12.24480439299238
H        -3.13965099030632    7.33004112974470   12.61039117126435
C        -2.14690107046829    6.30563557934600   11.01332402205624
C        -1.91092353013012    7.46713201436363   10.22164450037305
H        -2.25162997730804    8.42061330509767   10.60101782493226
C        -1.27879482062409    7.38188469964335    9.02862197381130
H        -1.10244335174415    8.26600275944353    8.43154536221973
C        -0.82428795667838    6.13111644180995    8.51972149193278
C        -0.16846910510282    6.02955196641741    7.29104953414539
H        -0.00093505472391    6.92326095248195    6.70624748969788
C         0.26123494904657    4.80744555450410    6.82451080731404
H         0.76734093686189    4.74271993307855    5.87144757222985
C        -1.04180822010020    4.95586127644785    9.28075811042613
C        -1.70448808885787    5.04863100992782   10.52997902060071
C         0.51993463340480    2.35102229773100    6.94725762727486
C         1.62921014577162    2.50543343320369    6.05900315739264
C         2.57313710857884    2.58511861436321    5.30181856256935
C         6.13201682924755    4.45657924581290    1.83476452302566
H         6.59229430664271    5.07722341186150    2.60970550389183
H         6.85141038347987    4.33492418807589    1.01769913403919
C         4.84937242650850    5.11768243512859    1.34495376149664
H         4.38386369326061    4.53461573262362    0.55227773865906
H         5.05822711460913    6.11263673149249    0.95672957239312
H         4.13548661471655    5.20948769909255    2.16306574475385
C         5.63001628260314    1.73269806901163    1.10718515098014
H         4.85831367041845    2.17613712839581    0.47034459489686
H         6.57617759432597    1.73494995997046    0.55509146349161
C         5.22102716925726    0.31673632374614    1.49451136748609
H         5.05678446669076   -0.28814261789644    0.60511382395548
H         4.29853561291658    0.33423695882719    2.07403026716890
H         5.99013921129183   -0.16525940582579    2.09510997700196
C         7.44289762735759    2.33380939980579    3.24253966364405
H         7.42876484253569    1.24919902531574    3.38691190966676
H         8.20860051511606    2.57296483051731    2.49656839038644
C         7.73299989183568    3.02196444905452    4.57089698390969
H         7.78512005958438    4.10265031713362    4.45180561212015
H         8.68232237944322    2.67930644332018    4.97745600141749
H         6.94811953381235    2.79693457331890    5.29232000372437
O         0.01395881534519    1.26304006307686    7.17385381710225
P         5.78876489947636    2.81194721680526    2.59019816884278

