50
CSD_code = NIBMUI | q = 0 | S = 0 | Stoichiometry = C14H27CoF4NP3 | MND = 4
Co        5.94708175702951   14.67632955379730    3.65683441988664
P         4.99941554708302   15.68857943968160    5.37702373058554
P         7.33451285811505   13.12047646582268    2.92768270568780
P         4.11512531496902   13.99173319108525    2.63172600269611
F         6.27207623042541   16.50397581290225    2.04324034984604
F         8.13403172166586   18.56002420671261    1.66131627575118
F        10.47486652115799   17.26999035869328    5.29145034946957
F         8.79204248121770   15.20471855884203    5.82625862182802
C         3.46037881628846   15.00476302532211    6.12720230104102
H         3.66990762473111   13.99427556003694    6.47404641971502
H         2.65810075791550   14.96195932971069    5.39541051821085
H         3.14494253019439   15.61746791996615    6.97086595748960
C         4.53082871317417   17.45166566977770    5.16699318692311
H         3.79517095614315   17.55370298487574    4.37287852774270
H         5.41959514231938   18.01468900990589    4.88641855821830
H         4.12711730847087   17.85225464956080    6.09607433129639
C         5.99508314220818   15.82398131250826    6.91004183088379
H         5.37712851015626   16.18437461719270    7.73179951460766
H         6.81895850512960   16.51485298042290    6.75189828021146
H         6.40701027839532   14.84902505377633    7.16058044356470
C         6.74703025454961   11.37599867346703    2.85096063285225
H         7.53123272425077   10.72509667620442    2.46647347452660
H         5.86604579034683   11.29185157083939    2.22030800720553
H         6.48139230820620   11.06497993768123    3.85988220668084
C         8.87353251644161   12.83660691374667    3.88175742319816
H         8.62885441288769   12.70799051862901    4.93363790472372
H         9.52917451667484   13.69849846807909    3.78328938034445
H         9.38786654937458   11.94985333514716    3.51256240919231
C         8.06595775745962   13.32971142712401    1.25574194062381
H         8.76096960286775   12.51893456566571    1.04074478116697
H         8.59933517247273   14.27868676278266    1.23088387303704
H         7.28604510201623   13.35452297183824    0.49935910389431
C         2.99408828164974   12.62450267479811    3.14473616204743
H         2.59908387259816   12.82915814542588    4.13679796618698
H         3.55454107758610   11.69325639193595    3.18744591479448
H         2.17040164561621   12.52093863478466    2.43968352576888
C         2.89899718701308   15.34713686537059    2.37945235637336
H         2.08422823561646   15.01678624860898    1.73584809148270
H         3.42048521400297   16.17789382058617    1.90729352643512
H         2.49335482257402   15.68634740631202    3.32892336755473
C         4.34591777456044   13.56958306850435    0.85680261835428
H         4.92805331679815   12.65817265647240    0.74717313378590
H         4.88424502235330   14.38958633835316    0.38484041539295
H         3.38137388263590   13.44107402127560    0.36659273227490
C         7.44037142935189   15.77301894830214    3.94082813854889
C         7.34113351899842   16.68552916182841    2.88243088367943
C         8.24920024482913   17.70014312506861    2.68521904864539
C         9.41632017191791   17.05256810862369    4.49642045494235
C         8.54768843964583   16.00494307405208    4.75918036810003
N         9.28080443761404   17.88608978775812    3.48718783308355

