75
CSD_code = NIBNUJ | q = 0 | S = 0 | Stoichiometry = C28H40Br2N4Pd | MND = 4
Pd       -0.00016333441448    0.00009612978920    0.00009157079643
Br        0.87465664381169    1.85244106514029   -1.31559900162942
N        -1.26820978529217   -1.18847057696098   -2.46208397303522
N        -2.62576632153744    0.11632116059294   -1.37549920445488
C        -1.37140855881500   -0.36985258243902   -1.39986810971996
C        -2.47314208483760   -1.24743078083228   -3.12705638688492
C        -3.34960715946878   -0.39739621873334   -2.42795013807239
C        -5.06889194952565   -0.92307383521624   -3.95980399073082
H        -6.08501191105098   -0.81692160572042   -4.30761977677105
C        -4.19866422663341   -1.75951123767973   -4.65597063723811
H        -4.55889105611107   -2.28208034855588   -5.52883217618903
C        -4.66283458264431   -0.22785451462030   -2.83653539387690
H        -5.34302447958104    0.41453731001910   -2.29990003580868
C        -2.88870124251963   -1.93896213016492   -4.25358036120893
H        -2.22205640557783   -2.59223657774062   -4.79419043924102
C        -0.06570081201658   -1.89511658675395   -2.82668847584271
H         0.03542593883394   -1.86783643017794   -3.91631482432115
H         0.78726970191138   -1.35314215436694   -2.38314178146763
C        -3.05957045340257    1.14409221635467   -0.45999625931981
H        -4.04239993496771    0.87673534682281   -0.06319480312322
H        -2.32821194045736    1.17304743738680    0.37256637263923
C        -0.08434251126681   -3.34394505732675   -2.33026633365004
H        -1.04357621760478   -3.79791933460253   -2.58974052003298
H        -0.00108586377667   -3.34960014894325   -1.24024850867147
C        -3.08832322674314    2.50397732307984   -1.16416156737579
H        -3.86365410869455    2.49691736296473   -1.93364117610728
H        -2.12431797716664    2.64989149504769   -1.65907736173912
C         1.04724869684663   -4.14850639254987   -2.95517279483161
H         1.07882211655367   -5.14882196939953   -2.53167180674915
H         2.00762764667909   -3.66807989131559   -2.78003044861199
H         0.90538477477651   -4.23586076284220   -4.03069147057327
C        -3.32118751655993    3.66650551030231   -0.20335385087510
H        -2.52066578467168    3.67981493052593    0.53712820907684
H        -3.25468805426965    4.59541404394981   -0.77280888330534
C        -4.67174824923737    3.61018932160807    0.50111844306510
H        -4.82226583922236    4.50913926047497    1.09426394425846
H        -4.73563155185506    2.75380632044605    1.16826857493584
H        -5.47910473336847    3.54379807161038   -0.22524652871845
Br       -0.87463418383055   -1.85260648419474    1.31569363758548
N         1.26822867008560    1.18852829229696    2.46204411508313
N         2.62575578288674   -0.11630340648807    1.37546740085257
C         1.37142354812219    0.36996129652110    1.39978692144263
C         2.47315311550757    1.24744735781348    3.12703173377299
C         3.34959837377731    0.39738674642911    2.42793474998403
C         5.06888913869792    0.92303894480204    3.95979503948542
H         6.08501596233374    0.81690015558455    4.30759321281201
C         4.19867947583750    1.75950330844731    4.65595040220639
H         4.55892717539096    2.28211072783824    5.52877975414651
C         4.66281331875568    0.22780138199883    2.83654443799585
H         5.34299604665204   -0.41459037187814    2.29990070277786
C         2.88871672014367    1.93896147897088    4.25356672765391
H         2.22209443817915    2.59228145791233    4.79414914301673
C         0.06572437858237    1.89517502766738    2.82667168699099
H        -0.03539048334089    1.86789626874143    3.91629974499820
H        -0.78725577222846    1.35320941031597    2.38313952719764
C         3.05954741314030   -1.14412225796309    0.46000701078046
H         4.04238721086923   -0.87679121168252    0.06321552750460
H         2.32821543535213   -1.17309824473441   -0.37257946164654
C         0.08438504048545    3.34399519061394    2.33022964050165
H         1.04362690308199    3.79796033987911    2.58968837322752
H         0.00111617003054    3.34962752943847    1.24021325097237
C         3.08829102924085   -2.50399903900821    1.16419549580811
H         3.86362285936649   -2.49693132732405    1.93367486618606
H         2.12428554076453   -2.64990215265194    1.65911760218474
C        -1.04718865516412    4.14857986994873    2.95513379813267
H        -1.07873825528859    5.14888597706193    2.53161024292562
H        -2.00757725689483    3.66816963789206    2.78000042391754
H        -0.90532225598279    4.23595475628268    4.03065018531459
C         3.32115354505933   -3.66655103436591    0.20341330377444
H         2.52062877964067   -3.67987643322006   -0.53706425677790
H         3.25465883741513   -4.59544711551525    0.77288683599838
C         4.67170804720177   -3.61026573083567   -0.50107478317150
H         4.82221177054692   -4.50923091776067   -1.09420025165135
H         4.73559083485466   -2.75389922503254   -1.16824548443881
H         5.47907365460607   -3.54386537297815    0.22527864786029

