132
CSD_code = NIBPUL | q = 0 | S = 0 | Stoichiometry = C53H71Cl2N2O2PPd | MND = 4
Pd        3.99690598903306    1.28412673528028    4.67443350901044
Cl        2.50566425301537    2.77904194634118    5.53787635707432
Cl        5.50074209369454   -0.30353195700396    4.01080000957550
C         2.53141030675752    0.02701685808562    4.18110962085731
N         1.75821037321949   -0.78470365642058    4.91825962036402
C         0.91502216107486   -1.49475505055715    4.10150465831563
H         0.20114352837201   -2.19565792897888    4.48284281165441
C         1.18218855727364   -1.11377153603009    2.82962529626738
H         0.75014055621700   -1.43634839690731    1.90482906084235
N         2.17636983225156   -0.17423062291696    2.89967492894528
C         1.83606657599638   -0.83230066098470    6.34125347222332
C         2.86155664499717   -1.58153329999215    6.93418673569837
C         2.95834921291555   -1.56030572635681    8.31892222630633
H         3.73331774093525   -2.12487507081289    8.81097861616819
C         2.06840269542188   -0.82728013179008    9.08201225915153
H         2.16721660711813   -0.81618889931649   10.15792622077184
C         1.04036227503969   -0.13070221391667    8.47883363571751
H         0.33714125283430    0.41198959496664    9.09008660439003
C         0.90121821842917   -0.11912697528167    7.09655475842842
C         3.75491332421867   -2.46224816467612    6.08980172915128
H         3.95613917354635   -1.95740472280120    5.13946637863357
C         5.11252393023746   -2.75239493837125    6.72461157758063
H         5.59452398415052   -1.82587523932737    7.01950351810448
H         5.74817490816701   -3.24210254747207    5.99089611823585
H         5.02307869172475   -3.40834974759689    7.58839971748415
C         3.02561242848700   -3.78076529241713    5.80584910503296
H         3.65332894431761   -4.42663222583243    5.19626418463702
H         2.09175727083969   -3.61275174901469    5.27464651306280
H         2.80115383261106   -4.29530026035625    6.73902762112604
C        -0.27736293502555    0.57337616957703    6.45270195735672
H        -0.08964506016864    0.67596863557667    5.37952350648346
C        -0.51303865357779    1.97816628625463    7.00516159512985
H         0.38783837656600    2.57455466326634    6.88928996530227
H        -0.79561536835898    1.95508322224089    8.05412187397829
H        -1.31631618046285    2.45711272327694    6.44932121444681
C        -1.52557927115816   -0.29507389238193    6.64667084705429
H        -1.37906452454215   -1.29148207781736    6.23401998545522
H        -2.38011433707266    0.16106114561287    6.15184987505980
H        -1.75340400793863   -0.39727297924329    7.70539071397629
C         2.80936650343976    0.58035416935895    1.86653562194843
C         2.44747315601538    1.93236729022641    1.72605780346887
C         3.18370909210772    2.70624707554553    0.83779458894264
H         2.95031793887279    3.75124189679116    0.71415897948033
C         4.21348781949947    2.15078215198504    0.09911433886292
H         4.78442961853501    2.77450733450449   -0.57345967071317
C         4.48986984764811    0.80087690879040    0.18742435744616
H         5.26247253255732    0.37510357740113   -0.43194022971387
C         3.79778434865035   -0.01347214164714    1.07585978718090
C         1.18513610522093    2.45437179697186    2.38383719360466
H         1.09858450107123    2.03254402501851    3.39048726048210
C         1.12825634519273    3.97149462157572    2.53560422796325
H         1.97801399120961    4.32951331745168    3.10794250229134
H         0.22711659429778    4.23854459562122    3.08273063035467
H         1.09922681574548    4.47312062557499    1.57102804428832
C        -0.01026189066075    1.97958933307994    1.54703735780139
H        -0.04485745123947    0.89481994070228    1.47895374665296
H         0.05612864812970    2.38344619891616    0.53825459753936
H        -0.93868365303694    2.32413787456933    1.99695686898689
C         4.04205552094875   -1.50352511875328    1.11413320800696
H         3.68655844213170   -1.89388772114668    2.07218995846293
C         5.51850922881005   -1.87580735633960    0.99492033797844
H         6.09186226859968   -1.34839392442408    1.75171821606690
H         5.91453011098477   -1.64039542517848    0.01042589730292
H         5.63578553418351   -2.94501152972159    1.15739074611441
C         3.24078699143531   -2.15712870687499   -0.01845544849522
H         2.18156107095035   -1.91935642775321    0.05543445245477
H         3.35550494711069   -3.23813209346829    0.01715854910820
H         3.59844263096398   -1.80310768025966   -0.98317276542470
P         5.68066835163224    2.70697060649753    5.22431523023212
C         5.34778069837476    4.51524509876834    4.96679216432776
H         4.47683383007589    4.72613895399551    5.60083433375757
C         4.93748536507432    4.76731863838447    3.51738618890627
H         5.78972554540710    4.59422568000622    2.85455973083339
H         4.13965273017689    4.06637574918301    3.23840030470243
C         4.47285022656107    6.21128554295343    3.35897255968056
H         4.17365961695001    6.39762674015603    2.32497107025863
H         3.60431413068486    6.38778924337128    3.99769744487710
C         5.60031985199916    7.16235398632613    3.75274833314766
H         6.44381800042702    7.02059578336581    3.07243188980939
H         5.26524050870837    8.19798571145646    3.66038421729489
C         6.05889486184677    6.89150834333231    5.18325781210978
H         5.23376143777380    7.09670784668622    5.87033201328726
H         6.88350572022676    7.56038662629546    5.44132129232065
C         6.49945261095393    5.43746090889900    5.34430137947932
H         6.81562749702660    5.25850210132675    6.37409146430642
H         7.35504145036197    5.23682474021409    4.69607428276243
C         6.01083487821904    2.51315501041982    7.04497609654833
H         7.04766045782846    2.78140279145285    7.27327547323172
C         5.06513142126808    3.34084564655536    7.91720831318775
H         5.22816769723286    4.40860972135132    7.76085778210690
H         4.02947146918459    3.11221386268699    7.65139059110196
C         5.29448772379452    3.01624739808328    9.39216725978531
H         6.31820942764921    3.28736291420673    9.66727226672201
H         4.61342477865272    3.61058938249559   10.00522250267119
C         5.07689574190322    1.53164487751555    9.66318859024410
H         5.24679163193782    1.31523283227785   10.72047914546248
H         4.04402898679775    1.26735185917282    9.42382067625017
C         6.01831948942849    0.70202260524624    8.79707595609910
H         5.85309832052321   -0.36201349690992    8.98261130355799
H         7.05492656202072    0.93678633338029    9.05641325133580
C         5.77836374474325    1.02303597769717    7.32750777318535
H         6.43069836286332    0.42865910806299    6.68190892145665
H         4.72629448314564    0.77316234347629    7.07297794352689
C         7.19699874476098    2.48179499418686    4.22623801790124
C         8.54609099269265    2.50423659753874    4.58080378143777
C         9.50684329485440    2.42088082636697    3.57571157563668
H        10.54959009718081    2.44364987864898    3.85948193850903
C         9.15693461408610    2.29474403249474    2.24599525987298
H         9.92506335649356    2.22968189220087    1.48899951291780
C         7.81898006474705    2.21929064965124    1.89542715852038
H         7.52651791807970    2.08005277390414    0.86508805128050
C         6.85796474774900    2.31177548666032    2.87965892315652
H         5.80580270394002    2.21294306260675    2.61210960733142
C         9.05350262135244    2.52045268988190    5.97395246585806
C         9.55364851032497    3.68592756304193    6.55856984962999
C        10.05267707402011    3.64758120932619    7.85732083573909
H        10.41935151343890    4.53941060969776    8.33874484268588
C        10.09524671274464    2.44387436934327    8.53615300800398
H        10.48648992091011    2.41938563644438    9.54247165909999
C         9.66739948133004    1.26823622299622    7.94701455136395
H         9.74708605302344    0.34055783658260    8.49027611935899
C         9.15081207147247    1.30052580680258    6.65602786630963
O         9.51193633696418    4.80362425760730    5.77693766196090
C         9.97451530992356    6.01725162041322    6.31267477623276
H         9.84574529412755    6.75449053990922    5.52161719104468
H        11.03365086813236    5.96200809898551    6.58474606923666
H         9.39021189392391    6.32258456586139    7.18710589120866
O         8.71431585240616    0.21807581947661    5.96297820265696
C         8.80983390864627   -1.05646153944383    6.54805581861363
H         8.36359453412754   -1.73587671771558    5.82378913329238
H         8.25367079527266   -1.11690016010851    7.48908595836640
H         9.85328609142925   -1.33878671617887    6.72408915656619

