120
CSD_code = NIBQOG | q = 0 | S = 0 | Stoichiometry = C45H69Cl2N2PPd | MND = 4
Pd        4.77154042417857    5.57704765066129   11.10873813536320
Cl        4.39468220362303    6.94704664741987    9.32721520094366
Cl        5.35401471330678    4.22631101057745   12.84750680784954
C         5.42558182517087    4.22290377050696    9.79666428192111
N         4.58096034894066    3.53359101485962    9.00882235555322
C         5.28741073424577    2.74926427964190    8.13629830980402
H         4.81660965357328    2.11926374263737    7.41016666590967
C         6.59943231030747    2.95871447778403    8.39749848960856
H         7.47523126258928    2.53526492265294    7.95052664095993
N         6.66454286567208    3.87178922512889    9.41951373248640
C         3.17179211290823    3.64499901229221    9.20752955639224
C         2.62047834259194    3.00999409470972   10.33428949860426
C         1.28267289553370    3.25153671216511   10.61888389289783
H         0.82681103510565    2.79453137329997   11.48185113115132
C         0.52213164536250    4.07123168163750    9.80478744451379
H        -0.51060102829693    4.26504412575671   10.05557545061975
C         1.06136480895766    4.60878771567388    8.65314646521747
H         0.43877027783146    5.20202752374226    8.00333973700892
C         2.39680803346987    4.40573096232279    8.32650826854078
C         3.42030308961444    1.96663708605207   11.08897707613676
H         4.46311237592855    2.29183977015989   11.16305628186154
C         3.36820182190705    0.66169225394926   10.28361220741581
H         3.76910198337526    0.79462332916080    9.28133142712273
H         2.33908324135229    0.31754138436971   10.19707269831089
H         3.94936988205958   -0.10860826616699   10.78568998057475
C         2.93996816981787    1.70771428380280   12.51355545835145
H         3.62108207723320    1.00994526075758   12.99532182928790
H         1.94307634718807    1.27355830768910   12.53144318400288
H         2.94841605811625    2.62778895874567   13.08834021941144
C         2.95755961665545    4.89976470624398    7.01350924179119
H         4.04759672295127    4.95139756551797    7.09112099011220
C         2.58420623052704    3.89008934993763    5.92109897966621
H         2.93381399976892    2.88967432827533    6.16800287197897
H         3.02448310155376    4.18585730540318    4.97155836815085
H         1.50330250730677    3.84877135450768    5.80347721414276
C         2.46398943800863    6.29267863126105    6.62749889847468
H         2.67112769934681    6.99211355660391    7.43183061751540
H         1.39909150790622    6.29634284924467    6.41007907389228
H         2.99073704016100    6.62829635769592    5.73695226654120
C         7.83947030188342    4.36241553200761   10.06267786150554
C         8.44576140886371    3.57885046662473   11.04889494494408
C         9.55342710406241    4.10344723836779   11.70275485671701
H        10.04070637016434    3.52647763895017   12.47232856769666
C        10.04115337139327    5.35422397759427   11.38018181834322
H        10.89828540006673    5.74945688950626   11.90575526582387
C         9.45405913433116    6.09415605404460   10.37092757428777
H         9.87164832112288    7.05210625866926   10.10728978931041
C         8.34167683329240    5.61633368570805    9.69123343249181
C         7.98013490429809    2.17167184186380   11.34322200873467
H         6.98114805415167    2.02862224211194   10.91998297586856
C         8.93782607115117    1.18389495608844   10.66714364307198
H         8.99850146474774    1.36594413629583    9.59584816784015
H         8.59585384434613    0.16340441990413   10.82467190673079
H         9.93745684027501    1.28176760693952   11.08461161113942
C         7.88168106702325    1.87998430299558   12.83970170230757
H         7.45903237566529    0.88871017526765   12.98946304455481
H         7.22909180686831    2.60747408606460   13.31469258244925
H         8.85657637134233    1.90680502903929   13.31870899787877
C         7.74995718229480    6.36555833280953    8.51893263264015
H         6.67040304804533    6.18757407431351    8.49223116190073
C         8.36793847475703    5.82732738611426    7.22305355495236
H         8.16628979838083    4.76612281303021    7.09697057074082
H         9.44706976017581    5.97250796338710    7.23256592643184
H         7.95427160022740    6.35746527924779    6.36833204479778
C         7.94811594852475    7.87774605897391    8.59230306633729
H         7.63073661584735    8.25589979794866    9.55926337295683
H         7.33746561980434    8.35327463985054    7.82867671071744
H         8.98568525201778    8.15616207301615    8.41933214152552
P         4.02916105064309    7.16239650339106   12.58323350646518
C         3.14110562439828    8.61910911286224   11.83209565748779
H         3.81039712184877    8.89006613726450   11.00171599367924
C         2.89792458369259    9.88175227500170   12.65462483566371
H         2.16860720345809    9.69550842719798   13.44305906298657
H         3.81775348380975   10.23485213983261   13.12396941333601
C         2.36172059189045   10.97526108122903   11.72891837896995
H         2.18199055557118   11.88726874679861   12.30349020767107
H         3.11164420774228   11.20114765335966   10.96731154476065
C         1.07110947707116   10.53016855858389   11.04619697894509
H         0.72150256669480   11.31390017503428   10.37085226408012
H         0.29781799218218   10.37408550447156   11.80323536194710
C         1.28906062062609    9.23240196092707   10.27297239249057
H         2.00796157126693    9.39597226955299    9.46791321623896
H         0.34983513600028    8.90360903126303    9.82275376365984
C         1.82487343447889    8.15288230974453   11.20724005510654
H         1.08682559754299    7.96669918115363   11.99076614102487
H         1.98554410604706    7.22038420745710   10.65391086553605
C         3.02958275834159    6.43618705882623   13.96789559088534
H         3.76541778240681    5.81053834519844   14.49232332827665
C         2.38301280606620    7.37814086324173   14.97585049224262
H         3.11322323832599    8.08978718087318   15.36784973906176
H         1.57949346189652    7.94107475991212   14.49762255721922
C         1.78808378232998    6.55035430970167   16.11489455805048
H         1.31635839249331    7.21024583851601   16.84688118053683
H         2.58741767855957    6.00457329113159   16.62148510317156
C         0.76111961897174    5.55761167388945   15.57427457611919
H         0.36184970374605    4.95667816486715   16.39405225440350
H        -0.07178902992345    6.10798271337067   15.12889076156536
C         1.38528251164828    4.64686895586942   14.51860419853795
H         2.17276044153923    4.04586645241275   14.97874362804461
H         0.62786755505044    3.96626879047421   14.12357487435041
C         1.97952071788086    5.48398271825077   13.39019753337263
H         1.17868631440140    6.04203779142497   12.90228537967621
H         2.44960141318477    4.84308946759985   12.62841570523904
C         5.54189692710611    7.93784321915799   13.35509183282754
H         5.31062102148949    8.96044462961836   13.67812268274794
C         6.09741940348490    7.15855649650634   14.54657634656198
H         5.38386964739019    7.17187076233102   15.37309417000009
H         6.26651089507892    6.11942711287676   14.25547076043272
C         7.41616236238789    7.76835390159265   15.01771134217778
H         7.80096587964865    7.19010932612622   15.86018676100835
H         7.24364335290711    8.79124148811717   15.36515319737047
C         8.43787578997900    7.78452166989559   13.88615987168990
H         9.37861163549054    8.21510452911416   14.23630671983798
H         8.63281300425106    6.76036046292763   13.55965033343341
C         7.89732920279832    8.58936251545224   12.70989093724328
H         8.62417423728319    8.59411671638410   11.89536180889526
H         7.73202412356309    9.62524925338620   13.01923773344932
C         6.58391797309402    7.98496715833012   12.22825830566153
H         6.77553895099916    6.95027829852696   11.87519260645227
H         6.18691980018284    8.56585553552411   11.38819060461019

