102
CSD_code = NIBQUM | q = 0 | S = 0 | Stoichiometry = C45H51Cl2N2PPd | MND = 4
Pd        1.94621645829579    6.00399105496410   31.07716250832118
Cl        4.04660341604918    6.87575431317532   30.78281228923245
Cl       -0.02459284248369    4.87508704911013   31.40504387608717
C         1.81507855242095    6.86215734709338   32.87366799460170
N         2.65609240544352    6.79494457516461   33.92177152031676
C         2.16085290640336    7.52668236023779   34.97240279019648
H         2.67193947219724    7.59091481105475   35.91042072708994
C         0.99160953533186    8.06396386055226   34.56154572469814
H         0.29820172256455    8.70399907503468   35.06636287618538
N         0.79723900525558    7.65211208337956   33.26585830604321
C         3.93362915150020    6.16909153620048   33.94190824036540
C         4.02548766261924    4.77711138704532   33.86924870828988
C         5.28843998541745    4.20049486303424   33.92776631245290
H         5.38595712234732    3.12775873860139   33.86525780161003
C         6.41987819225479    4.97949068846440   34.05933375271102
H         7.39381778391025    4.51460602390133   34.10279826392490
C         6.30888264361005    6.35470124940898   34.12088147192112
H         7.20127361671435    6.95463141667306   34.20667429637964
C         5.07045781784975    6.97764978711050   34.05864260238035
C         4.99887982739786    8.48739131946583   34.08795832551183
H         3.96129188006689    8.80752928451948   33.96024001561568
C         5.50296294975383    9.02808181568473   35.42885552334292
H         4.93697414907613    8.60759166264550   36.25827523546879
H         5.40008146188060   10.11071927610430   35.45621179595596
H         6.55116461459949    8.78042554675555   35.57527090218750
C         5.79515352143425    9.08332633966669   32.92514494931153
H         5.45227202990873    8.64970581631930   31.98897761735211
H         6.85808890168323    8.88441616875069   33.03049373093219
H         5.64957091340194   10.16111913227456   32.89056481168086
C         2.81196610439234    3.89071389894290   33.70522108056875
H         1.90001327985420    4.50071581656869   33.68813903779346
C         2.68306330155470    2.89901703197818   34.86237956472491
H         2.61958750826480    3.42631588726749   35.81251406504800
H         3.53566799251124    2.22564635504302   34.90112447607499
H         1.78154303438388    2.30425864472967   34.73601205498476
C         2.90366631129881    3.16551551641684   32.35744455630585
H         3.13717455584040    3.89749070516197   31.56569664653982
H         1.95704095167203    2.67955130560102   32.12478301255013
H         3.68949978416097    2.41314493426436   32.36616632059975
C        -0.32728877437028    8.04830241759669   32.48436212111171
C        -1.60143127042052    7.62568001512059   32.87450789230719
C        -2.69403344345990    8.09058282767291   32.15309376645278
H        -3.68738939359156    7.77714393001770   32.43217422785676
C        -2.52834337813748    8.95508532076619   31.09149137380149
H        -3.39131974846179    9.31834410540980   30.55226964415647
C        -1.26142268889388    9.36403200707623   30.71881720966149
H        -1.15088422019818   10.04481953629956   29.89071739620354
C        -0.13513680921583    8.91428060690390   31.39558677785616
C        -1.82946397659382    6.70778797930441   34.05292782473457
H        -0.86514105288273    6.36070056773674   34.43435130298593
C        -2.55511605908587    7.45823401140212   35.17445200101479
H        -2.00693492108200    8.34949138483730   35.47432748499455
H        -2.66418831732138    6.81357400043580   36.04366898570085
H        -3.54605132534469    7.76615051771781   34.84991095757662
C        -2.62130120545744    5.46592860289309   33.64040644092280
H        -2.10780576754836    4.96040544652131   32.82690123925204
H        -3.62601263617549    5.72347197317230   33.31661588700678
H        -2.69832617291118    4.78308980373671   34.48373856795325
C         1.24930803744204    9.40228717343078   31.01456605507011
H         1.96129012970855    8.56411835813358   31.10047941362410
C         1.68544171047032   10.50856375795554   31.98240630236418
H         1.67748020155382   10.16420174422216   33.01424479743609
H         1.01403665248370   11.36243973507299   31.90292699573766
H         2.69414081675331   10.83421873254807   31.73997144346310
C         1.35254038682317    9.91273907170239   29.57654308170566
H         0.94622227723588    9.18733461450040   28.87394421405845
H         2.40142490812795   10.07181292312317   29.33491236812749
H         0.83392038604517   10.86113989899128   29.44944170621333
P         1.86567767521296    5.08297093595824   28.99149149226523
C         1.86076936378431    3.26856862299509   28.95407290642333
C         0.67947677719363    2.53595273455301   28.93555043521251
H        -0.26991717499261    3.04913370689569   28.88306377448323
C         0.72527204157568    1.15472262720174   29.00494645046232
H        -0.19423708130571    0.58792657908768   28.98902217957066
C         1.94162350837228    0.49936070251497   29.10140921113452
H         1.97151483611619   -0.57926770353944   29.15289761270967
C         3.12053170570397    1.22724315311904   29.14567424795579
H         4.06911622737070    0.71777643091233   29.23566497297809
C         3.08181326119321    2.60696693097536   29.08230182691139
H         3.99677971586978    3.18531126060458   29.13623651818619
C         3.02121724493885    5.56190238807828   27.66161265133804
C         3.53101085528364    4.69539865230621   26.70365236233217
H         3.30329492481582    3.63924197710574   26.74390631523764
C         4.34037477006284    5.18617577193790   25.69395223132060
H         4.74074540315201    4.50832819064283   24.95353563972174
C         4.63750820348209    6.53703543865961   25.62916783033489
H         5.27443112084144    6.91163447543541   24.84111529687544
C         4.11795664109353    7.40643334983050   26.57466939935660
H         4.34692879860282    8.46085027492101   26.52554979574521
C         3.31031561333337    6.92112305316684   27.58460826169917
H         2.90998900873442    7.58791913329349   28.33898258645066
C         0.34057152549891    5.57220101357918   28.12520494441353
C        -0.40323028941384    6.62240221601935   28.64700341009206
H        -0.09822604342924    7.07232663182345   29.59111263493175
C        -1.53581863955735    7.06528473396109   27.98750146557201
H        -2.11840123102722    7.87285964793570   28.40516181649457
C        -1.92126616889832    6.46599760542199   26.80054239293949
H        -2.80791243607208    6.80650398787176   26.28574269345652
C        -1.17084107571866    5.42827924935460   26.26829056304808
H        -1.47114873627961    4.96596490645448   25.33900611332219
C        -0.03811954665638    4.98351569928642   26.92293148032064
H         0.55295717475757    4.17817587888289   26.50832722187180

