151
CSD_code = NIBQAS | q = 0 | S = 0 | Stoichiometry = C60H85Cl2N2PPd | MND = 4
Pd        3.13274105220059    4.70891341138944   15.39119166234625
Cl        4.37743726668997    2.92741009166002   16.09763347172747
Cl        1.93201134021171    6.54676623676077   14.75983301345851
C         1.66947559514950    4.24221448294680   16.67095414806585
N         0.85440532726988    3.17423497137680   16.61278314739999
C        -0.12768356983204    3.28313186334586   17.56791925438757
H        -0.88618553294238    2.53788285911297   17.69313854754876
C         0.08679819831289    4.44641025085433   18.22390303156480
H        -0.45011008375573    4.90120007247334   19.03040124515948
N         1.19860807344478    5.01908111817688   17.66233747382481
C         1.08779962239616    2.01296698255739   15.81846500791547
C         1.54549626796299    0.85990663956459   16.46331234519019
C         1.76704948510272   -0.27475799681574   15.69331865138340
H         2.12443912260308   -1.17634724048548   16.16498852235978
C         1.54234988017134   -0.26190102808987   14.33293928012776
H         1.72139704722581   -1.15208135530124   13.74803509904087
C         1.08799969184597    0.88670381548513   13.71235260129343
H         0.91444706552859    0.86978181695191   12.64936963772921
C         0.85512915643748    2.04864932569454   14.43623419494055
C         1.80139182586002    0.80492828717769   17.95240738291864
H         1.66461419589174    1.79939930785058   18.38622326937214
C         0.80597109746946   -0.14436285119658   18.62578782755799
H        -0.21982559953767    0.16198379378238   18.42881702506227
H         0.96353425737491   -0.14712854046127   19.70217083127340
H         0.93283578805739   -1.15947207213804   18.25804765681205
C         3.24185230561929    0.38121124406493   18.24566729421386
H         3.93221975287196    1.03173769440952   17.71400625174824
H         3.42387493115280   -0.64430626057064   17.93639711374572
H         3.43824343588240    0.45541357738328   19.31341208743981
C         0.32838000056960    3.30564515044394   13.77307751391796
H         0.94704735451582    4.15759848299111   14.10995232108060
C        -1.12378323771555    3.56244636074810   14.19415033880250
H        -1.22066910238286    3.69827838294514   15.26754159940961
H        -1.75277570194756    2.72495794252894   13.89494175213007
H        -1.49023952832695    4.46389457542443   13.70869394931274
C         0.39053018175302    3.27072938310280   12.24627974612671
H         1.38129188160879    2.99301292847752   11.89601535243785
H         0.15356581777222    4.25990437085814   11.86011422067050
H        -0.33681651898455    2.56871980186740   11.84183755545959
C         1.88947255164088    6.18178344133240   18.10705742719480
C         1.32997216105699    7.44769370505208   17.92046383485475
C         2.07985203141791    8.54936065668999   18.31298984208549
H         1.67909987958930    9.54166603546359   18.18135457983220
C         3.33325140886631    8.39362647324319   18.86935028627660
H         3.90692538376638    9.26461215690965   19.15192331419981
C         3.84359154758047    7.12986020244681   19.10292715920443
H         4.80275331235078    7.02864622702404   19.58442901737047
C         3.13160609803996    5.99598949481994   18.73587860889187
C        -0.07611587171148    7.62586231790017   17.39717153638544
H        -0.40577491853043    6.68887193424635   16.93902384102152
C        -1.00193795735118    7.95615005523898   18.57395255333156
H        -0.93991410588466    7.19847116744698   19.35294358771606
H        -2.03322806717796    8.01829075223594   18.23371401221502
H        -0.72546231805137    8.91188900677151   19.01368977611767
C        -0.18113155041679    8.70966138428779   16.32533129168540
H         0.49258921252465    8.47672569248504   15.50566982071635
H         0.05952686331367    9.69241859098373   16.72251834511710
H        -1.19735485756766    8.74084782951970   15.93812061853263
C         3.58614191752631    4.60905821373055   19.14768559021511
H         3.28756675090907    3.88335922175690   18.38388305450246
C         2.88329898139012    4.24989510240854   20.46293192230254
H         1.80064199183552    4.27797685286359   20.35553760617959
H         3.16695538615459    4.95331589737300   21.24392248418666
H         3.17084987511298    3.24899330236600   20.77712237165706
C         5.09536569677163    4.45853577665240   19.30915794053408
H         5.59779370774273    4.73363525252712   18.38639370845697
H         5.32807004076611    3.41574193155464   19.51268987057589
H         5.48133628841587    5.05938271591374   20.12958374434679
P         4.76188713315231    5.24100742067254   13.89182280498634
C         6.19780206450983    6.02903637959481   14.76193886438560
H         6.67794680513778    6.73381710996846   14.07552453569902
C         5.56193410903879    6.80350997849553   15.92231707543294
H         4.78750008493243    7.47095285159479   15.53426008511323
H         5.07110053162100    6.08457948421391   16.60470629457586
C         6.61370114855568    7.60657418732412   16.67569830410508
H         7.03656428300368    8.35281419102443   15.99857109659584
H         6.15028606173228    8.13386488839958   17.51235772841263
C         7.72471178125432    6.69341253224515   17.18585963415429
H         7.32149481408801    6.00865262265359   17.93411966794880
H         8.50412058307027    7.28885906328267   17.66763632083276
C         8.32660331745427    5.88456794110073   16.04093992673641
H         9.09573028711613    5.21187641917870   16.42727358336688
H         8.80352617291554    6.56786241580751   15.33191841439482
C         7.25523327759681    5.07439694180633   15.31083461625260
H         6.79267396011435    4.36063772815320   15.99730324906299
H         7.72694815320912    4.50968173154462   14.50382531160746
C         5.42539627944551    3.71400866957979   13.05730713571866
H         5.95133205596068    3.19888208845654   13.87173643799495
C         6.38918546707198    3.94738616961498   11.90165535727837
H         7.19316313088823    4.61753360257128   12.20541762634491
H         5.85629731154670    4.41155772989320   11.06674306839985
C         6.97733225805952    2.60938852257704   11.45399828199678
H         7.65554048168385    2.76667089688047   10.61189702058114
H         7.55733982044069    2.18151777306722   12.27532746096747
C         5.87468729886293    1.63141814771168   11.05565085452319
H         6.31548327061196    0.67165634921884   10.77789159533693
H         5.34692152369186    2.02171865962803   10.18142214960798
C         4.88015128849295    1.43976437561151   12.19848761635886
H         4.07971260191240    0.76428867400897   11.88838854293160
H         5.38125574169115    0.99036924546328   13.05799353932808
C         4.29530660361243    2.78919558410477   12.60236344071654
H         3.79205615552159    3.21881041331674   11.73299124381974
H         3.56382542974767    2.66024469634477   13.41466870016693
C         4.31831921107632    6.31659248078571   12.47564776777392
C         4.89578430423137    7.48926249503910   11.97495142401674
C         4.42940769563727    7.98246593330456   10.75417401245609
H         4.90060350957272    8.86929033481047   10.35225141031873
C         3.39039389603268    7.39036226383641   10.06509844962006
H         3.06430626260066    7.79941353242018    9.11996923716290
C         2.74118653681556    6.30220754863970   10.62401146509530
H         1.88187417515218    5.86534057869958   10.13692199281291
C         3.20692829696545    5.78585656883095   11.81370766003876
H         2.67986404016802    4.96630778959973   12.28860505949120
C         5.89322708378434    8.36153091857049   12.65302435609590
C         5.43438704738255    9.32892690902115   13.56080422504270
C         6.34828579419316   10.21062483228445   14.11748536682665
H         5.99767575459034   10.95425698426216   14.81438443939003
C         7.69650888562080   10.17510214730123   13.79287676629834
C         8.12229848194527    9.23975132643618   12.86562795257236
H         9.16457760966363    9.22130758119083   12.58261682132365
C         7.24126125660973    8.33985425241265   12.28207257846496
C         3.96154214067027    9.47228249460758   13.87607096567109
H         3.48188108693708    8.49315144649861   13.78738177571586
C         3.67803672495048   10.00837923709401   15.28174716997861
H         4.29722811636319    9.52175733292549   16.03107401438901
H         2.63799702320626    9.81333043081865   15.52956945882084
H         3.84278203197588   11.08303457946889   15.33508483443835
C         3.31195983151405   10.40788424171708   12.84986118882541
H         2.26132145192978   10.54746509132611   13.09388411544573
H         3.37679838575440    9.99215251895348   11.84821501750733
H         3.80563477370631   11.37859117927142   12.85664002659912
C         8.67561956114404   11.14303760670055   14.41195102794530
H         9.66890911243603   10.93612425427443   13.99670912537428
C         8.74691183204044   10.95428421968310   15.92878668746603
H         9.47726063821529   11.63633373299945   16.35923034667455
H         9.04187106283023    9.93551003838316   16.17175791004389
H         7.78130034450379   11.15025432380215   16.38849605690404
C         8.30740691101992   12.58643705843894   14.06257196253386
H         8.25428430113826   12.71265470850676   12.98320601473393
H         9.05502742199811   13.27247818940207   14.45536550738898
H         7.34232668023762   12.85253109358369   14.48634275783766
C         7.75051423079566    7.37056430854651   11.23948804728011
H         6.96065068921672    6.64136175798503   11.03477925831804
C         8.99600075200680    6.61764373299975   11.71484961174700
H         8.84379519201137    6.20140381018682   12.70861118107417
H         9.86058811170590    7.27565070888070   11.75227128194483
H         9.22462536341747    5.80412808276144   11.02903134828011
C         8.05654901562094    8.11481290740911    9.93681352352100
H         7.16122854285983    8.59552384811265    9.55041763940984
H         8.42549467816067    7.41991217747597    9.18519479061358
H         8.81192327859370    8.88007565617330   10.10124961235375

