111
CSD_code = NIBQIA | q = 0 | S = 0 | Stoichiometry = C48H57Cl2N2PPd | MND = 4
Pd       19.21960243391543   11.27744853346642    9.50327073611152
Cl       20.56160979455100   12.79901226411254   10.57183668915318
Cl       17.78311287022405    9.71244233016836    8.62522804116688
C        18.09620335324420   12.78181760255089    8.82306760294965
N        17.93900576321128   13.11550774321664    7.52905128436582
C        17.19638099526361   14.26646527947999    7.42699432345119
H        16.95762578614582   14.70835155487058    6.48163900742670
C        16.89135964973327   14.65029965890360    8.68608321477950
H        16.33050968003618   15.48762824127604    9.04612569490977
N        17.44777727072245   13.72340021433467    9.53096617922076
C        18.33699974364425   12.33757179280897    6.40178865243155
C        19.68612629453014   12.29515666574888    6.02315991645648
C        20.01446604502783   11.58838616522008    4.87377259780166
H        21.03881176908240   11.55140785271293    4.54144651235159
C        19.04410935188383   10.93202839367052    4.13960879067204
H        19.32102080877743   10.38778757802295    3.24821731056113
C        17.72457698176286   10.97233862866641    4.53879741334418
H        16.97833316466830   10.45288096068154    3.95887968238716
C        17.34257798776140   11.67807323877273    5.67274887080766
C        20.73693637329325   13.04358718752568    6.81716421799542
H        20.54901463126765   12.87395313990342    7.89148094971407
C        20.62987907661124   14.54788697466021    6.53994082156495
H        21.37941216310232   15.08128764815061    7.11965775639391
H        19.65276499214747   14.94039615086743    6.80977948203040
H        20.80005758560857   14.74684413299678    5.48271791441980
C        22.16554960158201   12.58363431556365    6.52797010064246
H        22.83716049300743   13.03696499940672    7.25300715049366
H        22.48597036827149   12.89537457421910    5.53554711971550
H        22.25438760762975   11.50291311912971    6.60936248050961
C        15.88269140002287   11.72380624101035    6.06128810822487
H        15.77736489219298   12.22529533262632    7.02709203756455
C        15.08401612018934   12.51419333638007    5.02013429066203
H        14.04251520651134   12.58613838541620    5.32571172728227
H        15.12409461718462   12.02176810019223    4.05162926846272
H        15.47856191351067   13.52193736133340    4.90417816363203
C        15.30944397694284   10.31534580426363    6.22464107291864
H        15.90715553913471    9.75809315119410    6.94129639250702
H        15.30145718795774    9.77639011783730    5.28126872199031
H        14.28708569353882   10.37465831066573    6.59221243475751
C        17.27747483027804   13.71302679342268   10.94567563485871
C        16.42363669439012   12.74916393656962   11.50449061544114
C        16.25257511962122   12.75864463464297   12.88216829484321
H        15.60053207656000   12.03589377248874   13.34479742138944
C        16.90202790964194   13.68862814795073   13.67254651044335
H        16.76019482261093   13.67545945556517   14.74343742511438
C        17.71268755743391   14.64635765323091   13.09833598167858
H        18.19279777494560   15.38002271111253   13.72592149591203
C        17.91436796020595   14.68271503631286   11.72404028046878
C        15.63761422659935   11.80232433716375   10.62080107520908
H        16.26653496939419   11.48994587716007    9.77856403408667
C        14.41320318251499   12.54221413209470   10.06760110119868
H        14.70056542080428   13.42114185892981    9.49387657826201
H        13.76928139095353   12.86400717199816   10.88471895437661
H        13.84446156164894   11.88069057750507    9.41813582793622
C        15.18665061101171   10.52186641105557   11.32059771801800
H        16.02580606972509   10.02481871887440   11.79803956699726
H        14.77962750701233    9.83954824518501   10.57786112579040
H        14.41247841058588   10.71835806631545   12.05960538546138
C        18.74539962007079   15.78602172461777   11.11170616269103
H        18.94990508070962   15.54035786859020   10.06557403334136
C        17.96055872547825   17.10159306402685   11.16801617722315
H        16.99119822682238   17.00808993238134   10.68217076694165
H        18.51945898439525   17.89189960126635   10.67182788955656
H        17.79084155106791   17.39608502515956   12.20120788100425
C        20.09661505220929   15.95082326900346   11.80710046160470
H        20.63344376386964   15.00685041158199   11.79435672601316
H        19.98102226604906   16.28055217387642   12.83604714002825
H        20.69019109864334   16.69273709604360   11.27723012465681
P        20.44575769898623    9.46074325433467   10.16634122814666
C        21.91010131715268    9.52818105680639   11.26329539323303
C        23.06300682149253   10.18546048375369   10.82017870998953
C        24.15856794802202   10.26119404706847   11.67094566908648
H        25.04960177667616   10.77136390091167   11.33278320910207
C        24.12826361333228    9.70232011137840   12.93497779115096
H        24.99124992263021    9.77549903984563   13.58042210139133
C        22.98747687832071    9.04877549448691   13.36851528008997
H        22.95217677468258    8.60626279451550   14.35328164491024
C        21.88717039183270    8.96577564077425   12.53733017823959
H        21.00439690741085    8.44383849483919   12.88154729718357
C        23.13920860581746   10.78110740146462    9.45217530530567
H        22.17446499615799   11.21281240734870    9.17342036445481
H        23.40295529916228   10.01837793511397    8.71750795620869
H        23.89198695419995   11.56548655812268    9.41946041284527
C        21.08351854064447    8.52905268962442    8.72870706844732
C        21.85444509242099    7.36123541197412    8.78432886896777
C        22.27525820152592    6.79282869691319    7.58701444848342
H        22.86450566440049    5.88678246107762    7.62087105846670
C        21.96114804780038    7.35475712845761    6.36284902894753
H        22.29675429968626    6.88165416672607    5.45156728285320
C        21.22563747112815    8.52609559474353    6.31319938045032
H        20.97782003628251    8.98210383044812    5.36669059370783
C        20.80265217023655    9.10916321435615    7.49154560172581
H        20.22759321454510   10.03663230244309    7.45553697365954
C        22.27811961650846    6.72000054334904   10.07066093966210
H        22.44349143607707    5.65394037326932    9.92542624914335
H        21.53839876829776    6.85637840814276   10.85399719134816
H        23.21530203932305    7.16245550144461   10.41233717367480
C        19.28772748044592    8.35844732490015   11.04183859304463
C        18.58883633996064    8.88160652509070   12.14099374587428
C        17.67481389917482    8.06807600982489   12.79633955463771
H        17.14482550764325    8.45495984507255   13.65629278176059
C        17.41988308848354    6.77989737463425   12.35849754244856
H        16.70206207768835    6.16562117799324   12.88212705769647
C        18.06430347026623    6.29389746710283   11.23488584522821
H        17.84329178869191    5.30351452031689   10.86518568925686
C        18.99132656814098    7.08224411041079   10.57752297227957
H        19.46799293183395    6.71292149877144    9.68109164465939
C        18.77732229692870   10.30654184736103   12.56100966524816
H        18.40813652498724   10.97839319886300   11.75939485261276
H        19.82911129655727   10.54544374771220   12.73517759539309
H        18.21825457530892   10.52774562210916   13.46851293657356

