53
CSD_code = NIBREW | q = 0 | S = 0 | Stoichiometry = C18H24N2NiO4S4 | MND = 4
Ni        0.85753739011394    0.48003126910249    2.00103233620506
S        -0.04235230089744   -1.45392453925792    2.36187620862994
S        -0.57827364372279   -4.16526547753288    1.30169914422369
S        -0.30999935380595    1.09316085931225    3.73386199887669
S        -0.60791277941638    3.11528578059803    5.89785672768140
O        -3.06995499800293   -2.44306779939846    1.54414806812007
O        -2.78827601851734   -2.16872964459067    3.75718777519573
O        -3.12098957042644    3.21732008200823    4.36078088216484
O        -4.24524524567398    1.66724093362958    5.52746495150170
N         1.71665611620791   -0.12435105904157    0.39865789903486
H         2.30639896283344    0.57137955859658   -0.06190154698564
N         1.72328224105693    2.18128001164183    1.87875117601718
H         2.32640075595881    2.30065947274284    1.06265829475523
C        -2.55928436218204   -2.75840673811410    2.58279491836197
C        -1.61561555338196   -3.93341403485758    2.76914221926144
H        -0.99601269916131   -3.78749417894611    3.65250507079820
H        -2.18962040927418   -4.85654513312187    2.85850789907596
C         1.03185117856715   -2.43363870176998    0.04781383555047
C         1.72315869751726   -1.25030568310928   -0.26120251522818
C         2.48423374518314   -1.44591181178387   -1.54963443219736
H         3.47368750780114   -0.98679112826268   -1.51946223575490
H         1.91729774729131   -0.97868601904708   -2.36039907346739
C         2.53616703850035   -2.96559475810495   -1.72592420975873
H         3.42480425127345   -3.35935375277978   -1.23042888666704
H         2.56919707566530   -3.26121466349996   -2.77305958418187
C         1.28064375436193   -3.47595096647174   -1.01091921276791
H         0.42704675083734   -3.52212325988913   -1.69250163344833
H         1.41516180217356   -4.46809222559823   -0.57999927233744
C         0.22257639859784   -2.60683051462851    1.14201943458051
C        -3.57392062396100   -0.98503610130942    3.71861737958843
H        -3.87715324517723   -0.78188147506465    4.74247599810852
H        -2.96689913714161   -0.16300635196684    3.33076960055949
H        -4.44286342587159   -1.12727130727836    3.07282722642372
C        -3.15517814427775    2.38016958746057    5.21609674036341
C        -1.99741142746810    1.97309295313155    6.10358595644514
H        -2.29474461186744    2.01580216679813    7.15052051753231
H        -1.66977521793021    0.96198991914652    5.85586949693205
C         1.01089888727797    3.48473215640367    3.80831073271816
C         1.72278021498824    3.25628917562127    2.61719904090466
C         2.56206650124215    4.47006513902894    2.30220568923101
H         2.56169941608781    4.70803559214415    1.23732020893154
H         3.59348355768063    4.26452893569780    2.60417811238631
C         1.95291419591879    5.57845380580998    3.16393174731761
H         1.15497734492400    6.07358055723447    2.60919768175716
H         2.68561218018428    6.32922375040213    3.45472701291630
C         1.35804460127039    4.83970468307036    4.36679185722922
H         2.09294994641019    4.73533936481724    5.16981424408885
H         0.48329292520932    5.34114832189331    4.78041471908084
C         0.11433987224263    2.61219857348610    4.37027994262772
C        -5.41197968166526    1.95455165721323    4.76423380772051
H        -6.18860560673441    1.29151410286936    5.13565308799135
H        -5.70160472355555    2.99855386767903    4.89871173437110
H        -5.22458827725676    1.77315504786422    3.70454122744802

