65
CSD_code = NIBROG | q = 0 | S = 0 | Stoichiometry = C29H29N3NiO3 | MND = 4
Ni       -3.73908186657054   10.82931000615153    1.59381945245935
O        -2.36050011792722    9.04180263318465   -1.58193967652234
O        -4.76017453805156   12.03792743580176    2.53433517047745
O        -4.69115437615706   13.51103966457968    4.17999720880832
N        -5.01381075086842   10.86989245699706    0.04916370180808
N        -2.71596700138284    9.65986842581002    0.60989856586702
N        -2.46787588573951   11.01116789149901    2.97093527566317
C        -5.53184792994760   12.20842073670089   -0.27186209217889
H        -6.30521795606290   12.13210030584553   -1.04805784143120
H        -5.94465690794461   12.68287712452171    0.61788342290326
C        -4.29567715847393   12.90674023717343   -0.81299443005578
H        -3.61384546863453   13.10702100239353    0.02090657382359
H        -4.51662885027716   13.84178927588671   -1.32251947952096
C        -3.70775908097851   11.84099313463819   -1.73893292231711
H        -2.62118773479051   11.88943894937082   -1.79762904881907
H        -4.10241830154020   11.94486549805995   -2.74964132883354
C        -4.17764840903653   10.50729061832358   -1.11578756096804
H        -4.76595149251531    9.93908867527997   -1.84900103527591
C        -2.98557493321537    9.63273663805500   -0.71779066882993
C        -1.88948300551205    8.72738628651188    1.19285491600580
C        -1.64461346969018    7.48546813617654    0.58222097899660
H        -2.09128711401489    7.28462835159656   -0.37622826984062
C        -0.85858807942053    6.52792174613696    1.17353581126140
H        -0.70670641822919    5.58156351658924    0.67621876930833
C        -0.26315911598895    6.77297047431937    2.40529016930737
H         0.35689941219791    6.02484494653852    2.87485329539889
C        -0.47374594565696    7.98217255084889    3.02171608631635
H        -0.01345602097457    8.16329215308466    3.98039592190812
C        -1.29008696859528    8.97334892687241    2.45610552919838
C        -1.46428884469454   10.22876428578306    3.17608992789669
C        -0.34246767932708   10.54834845498391    4.10254446936251
C        -0.30898502007645   10.08752949224776    5.41511137692277
H        -1.13794296895352    9.51404817026697    5.80382192898939
C         0.77661939087682   10.37180551794216    6.22338032120003
H         0.79095012472561   10.01730016172302    7.24315297814408
C         1.84174272146992   11.10609765228352    5.72789065523708
H         2.68585407482344   11.33018290094587    6.36237936759817
C         1.82612943752921   11.54047143809187    4.41401076912291
H         2.66067160852728   12.09878823134214    4.01679579139733
C         0.74384139183112   11.25439827590041    3.59956256038670
H         0.74284512559308   11.57046129656608    2.56646421135597
C        -2.65821576742018   12.30387316540969    3.65434976091942
C        -4.17667720562442   12.66674704020054    3.47786898981184
C        -6.10266584821817    9.90935474123963    0.29694691532578
H        -6.80400812868105   10.38642418437393    0.98760467521922
H        -6.62426717655998    9.68154724904519   -0.64340890262658
C        -5.55065352326436    8.65554422905733    0.92424567885969
C        -5.17283647958644    8.68777826392133    2.27034279941060
H        -5.42104544691522    9.55451447692194    2.88251282925084
C        -4.57732422975042    7.57819825174256    2.85012540332384
H        -4.29118223417666    7.60328919471210    3.89112951844421
C        -4.35893476992217    6.43394895608547    2.10005742637777
H        -3.88826695342236    5.57371558183692    2.55149712589613
C        -4.74934661042891    6.39337639034147    0.77360606838858
H        -4.58886170310290    5.49979513892504    0.18940913622607
C        -5.33774591987314    7.50141997319202    0.18574806791087
H        -5.62801766365239    7.46457675404748   -0.85460341859112
C        -2.33870762776946   12.35943307855153    5.14370037950543
H        -2.65679147473203   11.44737378893584    5.64237133671986
H        -2.92334437490087   13.18523986154291    5.55050251121874
H        -1.28844831939903   12.54498881833304    5.34859458944241
C        -1.88850350296073   13.38597080577009    2.88392450799589
H        -0.82035991534244   13.31577591773079    3.07945905531945
H        -2.24320975791581   14.36568711516121    3.19581272297322
H        -2.06144924268855   13.27146334591211    1.81065197015359

