36
CSD_code = NIBTAT | q = 0 | S = 0 | Stoichiometry = C13H16I2N2O2W | MND = 6
W        10.83246941016090   18.17157517838647    7.46607519987873
I        13.20941715288867   19.52903793840025    7.64302426439063
I        10.27452903450573   18.40663049284455   10.14778660172905
O        11.88524596680220   15.22029301278876    7.39513137197859
O        10.58246175626967   17.66065052877939    4.40926666837822
N         9.77188846537960   20.26487563195005    7.28115464659496
N         9.37260354599874   17.23566392164965    6.97362321883258
C         8.30237157998632   20.14052489962513    7.39747277206182
C         7.62765861240838   21.50555744837255    7.52518652929064
C         7.96893890755195   22.37706927251122    6.31973206422517
C         9.48502749856742   22.47461453596139    6.17419149679634
C        10.09877497639208   21.07762810426878    6.08892846070470
C         8.47566206349185   16.43105943612275    6.40064106966446
C         8.88731534091795   15.37916517783584    5.55545987998066
C         7.95173901150049   14.56467339779820    4.95618573955446
C         6.59654734500865   14.76449771787167    5.17392750166604
C         6.17723856230708   15.78729157530983    6.01193711367983
C         7.09512723060504   16.61302479646072    6.62201280851030
C        11.66344551204473   16.34409817676578    7.52169222552478
C        10.86349760938617   17.98916052982179    5.48216274630109
H        10.06744026131783   20.83133345152698    8.09312336553057
H         8.06092523951928   19.53080093467743    8.27582780004589
H         7.93771026409520   19.62471724875489    6.50023000514285
H         6.54885697309211   21.36809183045436    7.60274378001531
H         7.96694399589970   21.99302932209920    8.44302487118503
H         7.53792783665677   23.37122964655004    6.44017575873448
H         7.54313255343618   21.93436934816429    5.41643252724924
H         9.74696714258448   23.03713719287806    5.27792418581787
H         9.90577629336420   23.00367103132024    7.03337514663146
H         9.71355018265361   20.55559666890257    5.20459759607577
H        11.18663847884933   21.16572892674698    5.99439756512728
H         9.94364299482666   15.21294939293657    5.39813490391158
H         8.28265857450139   13.76257224534892    4.31342807027308
H         5.87132850156898   14.12140151112198    4.69986985355959
H         5.12355686289440   15.93989830886299    6.19352972372578
H         6.77408426257130   17.40288116612554    7.28649246722616

