77
CSD_code = NIBTOI | q = 1 | S = 0 | Stoichiometry = C35H38ClNPRu(1+) | MND = 9
C         0.66323407111151    4.46276732112383   15.57161514792356
C        -0.34063002781707    4.94290345442827   16.41978622013012
H        -0.09109744127253    5.57542729967983   17.26213599392199
C        -1.70858442511175    4.68811073147948   16.14832050876186
H        -2.45898509056729    5.15677713089507   16.77446895544482
C        -2.10669152689885    3.96360936916066   15.01296289009428
C        -1.08604589947497    3.45335551584477   14.15908035832873
H        -1.36374773720133    2.94745099994005   13.23923050492534
C         0.26078370851193    3.68364742977526   14.44517982500824
H         1.02054198915029    3.32830155158531   13.75541752195772
C        -3.54819102812929    3.84395273146660   14.62085261353344
H        -4.20773250017198    4.03168782595903   15.46464450799948
H        -3.76479703118097    2.85774980001112   14.21315574603088
H        -3.77050726794628    4.58029188712059   13.84698274775917
C         2.12197518237200    4.82002355121075   15.71779368105010
H         2.70871755812309    3.91152449574392   15.53421461064753
C         2.47152571848297    5.85193041228080   14.63621895905918
H         2.27586163816932    5.46728220918443   13.63803041950216
H         3.52527094052960    6.10734116463189   14.70349763414447
H         1.88765279649830    6.75966335370112   14.77755159774302
C         2.49125288708648    5.36136181401356   17.09607152652212
H         2.05305815240361    6.34328974169539   17.26375692062752
H         3.57105662279043    5.46265367941704   17.16372986187466
H         2.16394665610349    4.68538210441783   17.88120383232680
C        -1.12014265372009   -0.54998046058661   14.53427025326244
C        -1.81693146308272   -0.41611269348209   13.33353393918969
H        -2.63632398562756    0.28851922357568   13.26484509410349
C        -1.46284250035564   -1.18026400315919   12.23824927018264
H        -2.00566645587008   -1.07903044655555   11.31067049944004
C        -0.40634089445279   -2.07330758915139   12.33238921183140
H        -0.12829499408826   -2.66880409974672   11.47661031226890
C         0.29826219663222   -2.19573370918113   13.51926504821736
H         1.12680454895672   -2.88433069016753   13.58600942067949
C        -0.04853641925670   -1.43317362011298   14.62033888772309
H         0.51847076201541   -1.51336782580762   15.53537103502818
C        -3.37985866020598    0.09393184267029   16.20495904698716
H        -3.80169397016736    0.82618277769256   16.89782228313272
H        -3.97414595478375    0.09453045367873   15.29218518365846
C        -3.33079453221963   -1.29580896160383   16.84563884988067
H        -3.11382466055938   -2.03447441591478   16.07157147058936
H        -4.29178654811364   -1.54602031496432   17.29565128458436
C        -2.20324147891600   -1.33843716140278   17.89869200466344
H        -1.78927668635753   -2.34845034499964   17.93759161726360
C        -1.15541457915331   -0.28842497830882   17.50093426317706
H        -0.12420691958416   -0.65023636606100   17.50143798242082
C        -1.29578243861965    0.82771567285974   18.50160368254024
C        -2.01727822776814    0.31767853136522   19.64855478401897
C        -2.60917998195534   -0.90465919223225   19.28282085899967
C        -3.44908068032037   -1.55966832777774   20.15919591056529
H        -3.91017832526012   -2.49553833114073   19.88255558672991
C        -3.67945514522957   -1.00383676694665   21.41066756010464
H        -4.32674445940465   -1.51225119985961   22.10824644188688
C        -3.07814512892126    0.19160960043889   21.78040746255574
H        -3.26041829284065    0.59902765489472   22.76252432712657
C        -2.24561044665298    0.86773205174659   20.90575232288037
H        -1.77459358136341    1.79197619661067   21.20092360237480
C        -1.09964943551853    3.12090041669857   19.06659404570350
C        -2.31204261979176    3.79320843988354   19.26487942908636
C        -2.32427392219721    4.90355356558229   20.09643276820391
H        -3.25158079645975    5.43263777517859   20.25618831863216
C        -1.16783125141532    5.32964389094931   20.72645192639066
H        -1.19249110725165    6.19886064851555   21.36476689030449
C         0.01474360592554    4.63165713580238   20.55549918709508
H         0.90857034566541    4.95046589179966   21.06966960734638
C         0.06833723892214    3.51319214415644   19.73579731102914
C         1.31675269903837    2.70063516101273   19.59695209167155
H         2.17876133749746    3.24473219865534   19.97287726638839
H         1.49228540793049    2.41262956415710   18.55851931957411
H         1.22128098628524    1.77932612983118   20.17353539191438
C        -3.57266961467369    3.29217245185183   18.62579567129002
H        -3.99340010484684    2.48385299464870   19.22574314110163
H        -3.37304181204125    2.90289530975389   17.62521563006201
H        -4.31520446035402    4.08370944264149   18.56391210924656
N        -1.01756207386561    2.03874235236754   18.16245596302974
Ru       -0.65868880490761    2.58319902760430   16.21949821966259
Cl        1.27088593519587    1.25131582815273   16.25844046435477
P        -1.60539694145203    0.52099154962643   15.90428316452599

