29
CSD_code = NIBXEC | q = 1 | S = 0 | Stoichiometry = C12H12AuClN3(1+) | MND = 4
Au        1.24503794113251    3.30043933673501    4.48684426967340
Cl        3.03812709357571    2.50220137604665    5.62301814894991
N         0.42432653309425    1.53766170885318    4.07139618848119
C         0.97497562847890    0.33738065670171    4.26592474334152
H         1.92414886749950    0.32645529875918    4.78220206770039
C         0.35905919110083   -0.82160409796653    3.84177511509270
H         0.82901472176313   -1.77438269121862    4.02300723838583
C        -0.86159655753585   -0.72981316243357    3.18426478447114
H        -1.36697933638557   -1.61785827272452    2.83726802242350
C        -1.42119542199169    0.52000110901745    2.97776647531774
H        -2.36471729925870    0.62880270725977    2.46680816582536
C        -0.75869478574147    1.65010448873283    3.43485471857787
C        -1.29140180625983    3.03888089184151    3.29950323481482
H        -1.80894628119802    3.16570641770236    2.34029147049060
H        -2.03758342657611    3.19703515485545    4.09969315028184
N        -0.19371599348871    3.97421852220286    3.37971489671740
C        -0.52882587991178    5.33994677022088    3.70902430729581
H        -1.30575922124859    5.40500002323510    4.49227712706680
H        -0.92088362301510    5.84432884109508    2.81720898202289
C         0.69300792685512    6.03275502512238    4.21714676207529
C         0.86291607981342    7.40964573765853    4.20391501236372
H         0.09412400682602    8.03493288733129    3.77867371390151
C         2.01657694824687    7.96034150746210    4.73672868532441
H         2.16171092078036    9.02969131859784    4.73509547105591
C         2.98261901185000    7.11592453644845    5.26987407725680
H         3.89316550586129    7.50322674458638    5.69679667702921
C         2.76275455157885    5.75445577269607    5.24584589475260
H         3.47877711777369    5.05062652039216    5.64508408815615
N         1.64465758638089    5.23199487078920    4.73719651115361

