71
CSD_code = NIBXAX | q = 0 | S = 0 | Stoichiometry = C28H30O10P2W | MND = 6
W         3.10019768736817    2.58176643091689    2.62683532473875
P         1.46274492260266    3.15293087604475    4.26542862288476
P         2.75787216299129    4.88459664981993    2.09840092614801
O         0.65901429432913    1.90981785579399    0.78079492302791
O         5.13752635972564    2.19555846356141    0.30103457485697
O         5.47722362503156    3.26933502000297    4.54335228778272
O         3.37179355794144   -0.39978805336829    3.49673877777224
O         2.32253279882057    5.89833948518797    3.32046197809331
O         1.78115755274405    4.22081225545935    5.46630633518386
O         0.19682061681933    3.84582124372733    3.54459765787860
O         0.78732210510321    2.01463219199216    5.16838154221674
O         4.06823461055598    5.60069882498162    1.48352848986557
O         1.58403821957255    5.25756773614765    1.08469917183234
C         1.56810460529724    2.13531528175903    1.43545611323726
C         4.39396425327397    2.30686985805029    1.16557070247714
C         4.59800262013731    3.04498300766759    3.83972402895625
C         3.28178317428357    0.69194709429104    3.16165017234830
C        -0.96799144755431    4.11451439291923    4.31401792586574
C        -1.51447661245285    2.85143051357425    4.99358240997762
C        -0.40260395656123    2.30225872975513    5.89671839937794
C         3.98893208710202    6.83941070308745    0.79095250723339
C         2.87345570231689    6.85091575873461   -0.26115419262639
C         1.55909615691475    6.54024474417572    0.46596965498715
C         3.11675125334299    5.91470860614588    4.45849958007990
C         2.83571034278696    5.10363109813389    5.49083528877029
C         3.56588200863436    5.08758760144789    6.76804291705656
C         3.85353004783983    3.85741821730202    7.35478266066790
C         4.54296591500776    3.80041237385052    8.55146489038553
C         4.93851727665317    4.96807253316431    9.18213698634090
C         4.63334886273588    6.19538121897268    8.61547707690163
C         3.94799372564914    6.25937268002249    7.41716250213517
C         4.22055057735316    6.88902868246438    4.41808310415016
C         5.52485806127262    6.54285024639727    4.76043907677195
C         6.53706165316959    7.47902502740345    4.66437214173993
C         6.26565384282941    8.76597402809503    4.22784546649184
C         4.97172871150230    9.11659627192088    3.88294979156555
C         3.95555347182647    8.18247094849635    3.97268515699147
C        -1.88604431553711    1.81240592458580    3.93623007174028
C        -2.73091082384579    3.21290405566704    5.84439903528185
C         3.14659043710975    5.78350518778979   -1.32006915030334
C         2.78982595250740    8.23654934424816   -0.89931528815550
H        -1.69781204257575    4.52140972811713    3.60835428289209
H        -0.74355386803486    4.87630057248327    5.07156637771659
H        -0.17946854391375    3.01923505406616    6.69543687160651
H        -0.70287637780533    1.35187403041176    6.34722120489745
H         4.96778317217211    6.96859276453575    0.31981775339503
H         3.83706802872648    7.65526769440248    1.50856330162476
H         1.35331965366270    7.31180448289420    1.21671416590409
H         0.72500490032529    6.50252945004614   -0.24058837426503
H         3.54633116722195    2.94827353973693    6.85677679341241
H         4.77325798920433    2.84168549036782    8.99140694545655
H         5.47796428926501    4.92317934607166   10.11646514805601
H         4.92724021379579    7.10803034627175    9.11247546891089
H         3.69885176622083    7.21569411625782    6.98385824322018
H         5.74358863846269    5.54088356712257    5.09085507638288
H         7.54658175522473    7.20036239772319    4.92652504928754
H         7.06045580114614    9.49329620318138    4.15491168390295
H         4.75265449936024   10.11885710753912    3.54360505547333
H         2.94026856261524    8.45508893412189    3.71825357736213
H        -2.25755150598075    0.90682739132031    4.41026764158118
H        -1.01488915878046    1.55551414752304    3.33692784570252
H        -2.65658171125250    2.20318953379529    3.27562711200549
H        -3.11140744920478    2.32836998302658    6.34898267892456
H        -3.52103326463242    3.61809690093166    5.21716619380202
H        -2.47340528416982    3.95448441048744    6.59727885056914
H         3.22970045960427    4.80220542107325   -0.85576235167252
H         4.07747264214509    5.99762301980435   -1.83962843845108
H         2.33818320821991    5.75483935864478   -2.04691886141969
H         3.72923792058334    8.48032457571295   -1.38874081570584
H         2.58415984412966    8.99866057778612   -0.15100148450677
H         1.99734259707489    8.26052674410555   -1.64298663879005

