49
CSD_code = NIBYAB | q = 0 | S = 0 | Stoichiometry = C18H23N3NiO3S | MND = 4
C        14.80219318166530    4.57316822368570    6.25751255573630
C        16.15345448680919    4.48844465976129    6.68700704302902
H        16.55366540043756    3.49293605709452    6.79190243857234
C        16.89641942179846    5.61028503669348    6.95093078074192
C        16.32187671052170    6.90025285021888    6.79718291534056
H        16.93897478010969    7.75636896083934    7.01515969129748
C        15.03448859041035    7.02519835695998    6.38746131197171
H        14.59252081676626    8.00380862184404    6.26856970249588
C        14.23243776433582    5.89116637735879    6.10466030620567
C        18.83842905634119    4.37887979794590    7.54684046430240
H        18.34153807419517    3.77500906285824    8.31193123817557
H        19.84676469946668    4.62410719115733    7.87620088574735
H        18.88790496657136    3.81156888641221    6.61271370080933
C        12.91120757633525    6.05412407320692    5.68534102682309
H        12.52482732419208    7.06856774850684    5.58289728651227
C        10.79754766928658    5.27076970935078    4.99372773855832
C         9.96694439085200    1.96555594420227    4.67119497013558
C        10.50768515787981    0.69287818997643    4.81623440045440
H         9.88489181331021   -0.15943980902365    4.60102256607555
C        11.82622234165279    0.47281568775092    5.22869483510913
C        12.31140646576130   -0.95301304514375    5.34269686007988
H        12.32241077261325   -1.41769581473973    4.35918687193474
H        11.64745637763811   -1.52689030224794    5.98448535507133
H        13.31611658684515   -0.96156217543392    5.75423941788747
C         8.54499415901660    2.13888016601903    4.22992054414333
H         7.99333536915526    2.69174593855035    4.98799162006289
H         8.07120427873518    1.17725141123437    4.06197383675803
H         8.51611509388237    2.72685482043670    3.31452867181725
C         8.45729102954990    6.45922335173172    4.26759311207557
H         8.55630108170747    5.87177428279154    3.35553135105578
H         8.01784671793284    5.83745354299321    5.04672748577596
C         7.65220835340556    7.72619436762247    4.03689490794021
H         7.61465742561015    8.30489692350792    4.96251509885399
H         8.14974704930722    8.33948927199659    3.28225444076275
C         6.23198784620720    7.40062519443870    3.57818892937329
H         5.74153465220568    6.78214264607660    4.33326028696426
H         6.27544591005001    6.82204222599253    2.65271642891123
C         5.41566558901856    8.66633512195765    3.34877391661889
H         5.34654471862433    9.24682723853969    4.26600181733173
H         4.40873705438769    8.41699753100505    3.02326278593340
H         5.87995265994675    9.28695630000395    2.58565504850236
N        12.09369115321235    5.06061740508737    5.40324741731927
N        10.04742603356592    4.25085219381849    4.73675790694867
N        10.68301054788299    3.06112543721540    4.91615994360784
Ni       12.42016232453543    3.22813817448993    5.47204782688490
O        18.18509625625381    5.61315698667503    7.36355221831136
O        14.16510476638205    3.49417668486432    6.03091481793771
O        12.65395715499733    1.38418731339697    5.51236353561439
S        10.14539834861703    6.88825118032374    4.81397168742151

