34
CSD_code = NICBOR | q = 1 | S = 0 | Stoichiometry = C15H11Cl2N4ORu(1+) | MND = 6
Ru        4.91161741709800    1.35269505652378   25.07729007900133
Cl        4.30151354539850   -0.67816141907334   24.29105463063402
Cl        2.83206170616606    1.52521602781749   26.14449876485630
O         5.73272016162938    3.89040921227835   26.03344753137005
N         5.37507097264660    2.86545944389722   25.65826561563661
N         5.92185105365671    0.30706455807100   26.54319852197880
N         6.54861861040151    0.92282629302233   24.08181312662070
N         4.36093327259652    2.06261198651537   23.21833260069040
C         7.12369443764588   -0.13838525646122   26.10239905594509
C         7.92724017299718   -0.91553094602996   26.93033661803930
C         7.48112051176009   -1.24654954147986   28.20242708206470
C         6.24008649893409   -0.79543165414176   28.62047564264902
C         5.49053670880844   -0.01199625738248   27.75253490235415
C         7.47430551732595    0.19610775171518   24.70794048624203
C         8.59569304017112   -0.22471202299152   23.99416460972577
C         8.68742751993467    0.11222918896374   22.64995496468805
C         7.66853274514835    0.81539893869948   22.02044796712934
C         6.56891739339378    1.21173967642415   22.78058600322667
C         5.33696593332713    1.86686208214420   22.29845273014354
C         5.12725364323941    2.22403769651167   20.97045307479694
C         3.90619491085636    2.76487023805310   20.59186972198799
C         2.91911143356347    2.93660237078995   21.54822302209606
C         3.19379744165812    2.57225284806989   22.85998262443058
H         8.88621357920725   -1.26544824883402   26.58505866145241
H         8.09395654319413   -1.85439085242628   28.84978359539398
H         5.85203705357523   -1.04064329701129   29.59559654880685
H         4.51133447885643    0.36815815579984   28.02520179260497
H         9.37061636488216   -0.80949895979307   24.46062298150481
H         9.54840806750088   -0.20139528209769   22.08021543053238
H         7.72959826711126    1.03162552872482   20.96707640937627
H         5.90352684340352    2.07502255072528   20.23800113042906
H         3.73118101168955    3.03870004192148   19.56303663875043
H         1.95363636052351    3.34199224305378   21.29309907028656
H         2.45852678169823    2.68206184799976   23.65055836455460

