76
CSD_code = NICCOS | q = 0 | S = 0 | Stoichiometry = C33H37ClO2P2Pt | MND = 4
Pt       11.21727768029906    1.09878319349679   10.39593178283150
Cl       11.75957257623712    0.21645851557815    8.34820167172545
P        10.53218186159451    2.10135453747797   12.29934552535974
P        11.60940852049156    3.26060420073685    9.59280038397839
O        13.22784704732814   -0.95298268689667   11.13517596201173
O        12.10851399314759   -2.65363623335441   10.13459585333261
C        10.90454110234906   -0.82116323988728   11.13773327481100
H        10.91039474424271   -0.79950750500468   12.24043223077448
C        12.10696073467480   -1.59730892518079   10.71416329170795
C         9.61311678923295   -1.45935827224247   10.64129360000158
H         9.54318935968734   -2.48905988379014   10.99634390165656
H         9.59521906388787   -1.48506845694911    9.55295624730432
H         8.74525425482826   -0.90759767901617   11.00363216412245
C        14.53631596646602   -1.50868397153198   10.87492583278884
C        14.66337373108855   -2.90216389691190   11.49495308468322
H        13.99964580432913   -3.60015127886880   10.99399937767605
H        14.40195740801900   -2.86657889158883   12.55121202938800
H        15.68758484646718   -3.25239999660236   11.39559244393074
C        15.51240065874474   -0.55344057008467   11.56797552295570
H        15.33566597364115   -0.55734711080045   12.64086053090904
H        15.38227261917473    0.45937608511325   11.19764645712282
H        16.53438102439542   -0.87034858842196   11.37885283097794
C        14.79680361780787   -1.55044743742595    9.36996908284528
H        14.10622898003445   -2.24149102040304    8.89494938246726
H        15.81615162098993   -1.87454692922490    9.17592667862296
H        14.64243751811985   -0.56566259968927    8.93457173179935
C        10.25246985869969    3.89719717725457   11.91276721758887
H         9.31168288331273    3.97298971081245   11.35909818712004
H        10.15864892383527    4.47614934990080   12.83665370212383
C        11.41772169771960    4.38940252375256   11.05916704599193
H        12.34984723704048    4.31179465882585   11.63119629976732
H        11.29443407412160    5.43124478244106   10.75232091405029
C         8.94505820019835    1.58407410330596   13.00612842139868
C         7.85336113804135    1.60430056151026   12.13931439072335
H         7.99091842590451    1.95709388866002   11.12406773245705
C         6.61909188805188    1.15305967211558   12.56326948265550
H         5.77512670418752    1.17279176908504   11.88975360749719
C         6.46984013466356    0.65934067600480   13.85069532737682
H         5.50670944366212    0.30141182064145   14.18251710553826
C         7.55897824879786    0.60656167983668   14.70406231448890
H         7.44593750137662    0.20227380556788   15.69927629825472
C         8.79792282542444    1.06042893216723   14.28479597952836
H         9.64988436004837    1.00178370670730   14.94713685370751
C        11.70142868559600    2.19921588274498   13.68389884864051
C        11.44229750122416    2.93556718533962   14.83664801183671
H        10.49507113440893    3.44506897990640   14.95385660592334
C        12.39509491059277    3.00393155338462   15.83605357174045
H        12.19394970641897    3.57051137533867   16.73365563502604
C        13.60771455860085    2.34779565308987   15.68756894354016
H        14.34886240844171    2.40719386260156   16.47088902013073
C        13.86857502331174    1.61726640674562   14.53999083911039
H        14.81536564265964    1.11025877139696   14.42829300588352
C        12.91694509525274    1.53998933570284   13.53830041102240
H        13.09229422850819    0.96370808842493   12.63649434909327
C        10.65811159559857    4.02216992605369    8.25110256936274
C        10.87997295029103    3.48133360918857    6.98413995865685
H        11.59626217308520    2.67745295755482    6.87669446463556
C        10.17637113498934    3.95436757723574    5.89457816061218
H        10.35360493074089    3.53508374745929    4.91541713652888
C         9.23723463334249    4.96143555799289    6.06013436894931
H         8.68633331859957    5.33333711529921    5.20889965787702
C         8.99592229114881    5.48287775282303    7.31987504408537
H         8.25515431819472    6.25879388853953    7.45099401157823
C         9.69712204991577    5.01295254449791    8.41712143039802
H         9.49065705252820    5.42537003826673    9.39471149335055
C        13.32335673546126    3.57589318508467    9.09585419548016
C        14.25271326782937    2.60548290033521    9.45215379266369
H        13.89624004761904    1.71859114145289    9.96931990396543
C        15.58403817117832    2.76324545052632    9.11575846932147
H        16.30734026405750    2.00504008402555    9.37848016771931
C        15.98713181783706    3.89479950301505    8.42468367117477
H        17.02523919810831    4.01913307457735    8.15354133268753
C        15.06203947092322    4.86423519857025    8.06943517093999
H        15.38209096458596    5.74128786209495    7.52581594378888
C        13.72818551972640    4.70933096622332    8.40088217269100
H        13.00064815692178    5.45604864744069    8.11329588556038

