33
CSD_code = NICGOY | q = 1 | S = 0 | Stoichiometry = C16H10AuClF2IN2(1+) | MND = 4
Au        2.50031934576711   10.31482343316976    0.33443806300269
N         2.63071383486402   10.93569924179230    2.39498797737297
N         2.05641568260919    8.48743084852286    1.44764927993296
C         4.52070921567900   13.77050762945790   -1.02163009794394
H         5.54671065375935   14.06902501756984   -1.16409695341010
C         2.51525882800017   10.24624370618515    4.66331837935876
H         2.34973639455274    9.47639625953654    5.39752995923820
C         2.84703404666040   11.51850855183589    5.08901904868535
H         2.93977142646824   11.76085232245624    6.13644319148002
C         1.76085353382230    7.32405554446446    0.89630753745369
H         1.78159541017568    7.25418022968292   -0.18315420258841
C         4.22886928131952   12.47294198621533   -0.62990574995947
H         5.03584873924013   11.77201844722075   -0.48082335577696
C         2.91056690516743   12.10739711232507   -0.44741594105589
C         1.72013285340547    7.56386157376031    3.61047190497182
H         1.69919982958426    7.67396587722392    4.68120005398126
C         1.43176571338190    6.21952966705150    1.67385948406023
C         1.40410852375540    6.33629139089318    3.05675003651092
H         1.14216551788437    5.48835962118503    3.67047136567561
C         3.06254862770533   12.49097668159953    4.12113996091623
C         2.16579147151846   14.28053116344251   -1.08828826078895
H         1.36426002961816   14.97451502051691   -1.28313472919740
C         2.94837006734962   12.16177341821344    2.77776945153937
H         3.11728679860649   12.90225385901133    2.00873047231055
C         1.87350985381113   12.98324394566309   -0.69631914541224
H         0.84221577338811   12.68043516791202   -0.59966941729104
C         3.48900733807491   14.67357206905973   -1.24647606398648
I         2.35465635616074    9.51899334114660   -2.09684947129013
F         3.38023194051659   13.72891516197822    4.45975798984477
F         1.14383297226265    5.07226341780339    1.08741966123516
C         2.05190160723077    8.63795905222919    2.78243607657661
C         2.40514186783136    9.96728715173127    3.29826558611956
Cl        3.85056955982956   16.27749208914273   -1.74260209156579

