98
CSD_code = NICGOX | q = 0 | S = 0 | Stoichiometry = C49H43CuN2OP2 | MND = 4
Cu        7.87132630207569   19.44281937577844   13.56068971374710
N         9.61291188941110   20.20414436094533   13.92693395721204
N         6.73530109218129   20.59226417089492   14.64332174098205
P         8.48748264973512   20.96184078421605   11.02904538608126
P         7.26127358716827   17.44051248336416   12.86200718581118
O         7.36056556900778   18.54706579883153   10.44991285198251
C        10.82321714339506   19.96976527225194   13.43840935452252
C        11.79077183565443   20.74002576070498   14.12351702209180
H        12.84649111819003   20.73676382275993   13.92419993769623
C        11.12251839603172   21.48140288535927   15.06933933490646
C         9.73835089847931   21.14307473597129   14.93161128168578
C         8.68807433619354   21.70961411975240   15.63755960091317
H         8.97108954050002   22.45280771910333   16.37318480210236
C         7.32356291682654   21.49144279226762   15.51049496380610
C         6.29092099379775   22.17947589285097   16.22233781935264
C         5.10186321786856   21.67451897617738   15.74990119689715
H         4.10932846079951   21.95504350358142   16.04980434609777
C         5.42031959008511   20.70015459315339   14.77919414497951
C        11.05929933870691   19.05548650196126   12.29059403047337
H        10.12323036003592   18.57746527208748   12.00455935767142
H        11.79205826395317   18.29025024950333   12.54515027062772
H        11.43988817796629   19.61568408811698   11.43419411937428
C        11.69999589111482   22.45538633921879   16.03575328454721
H        12.78188182425283   22.49325529528425   15.92929102996121
H        11.46154082182043   22.17100523380584   17.06100214252326
H        11.29943016849530   23.45499360918324   15.86234274205908
C         4.46600735977786   19.87984036805875   13.98815942321575
H         5.01741777992667   19.19380237481166   13.34419558293707
H         3.84349939247651   20.51860499371378   13.36159875892486
H         3.81243949119766   19.30675349881947   14.64607864335757
C         6.48588526196284   23.23236286574010   17.25700447506305
H         5.52341209207970   23.57128368603094   17.63383364533354
H         7.01692656486085   24.08971975519460   16.84162124189480
H         7.07073051976020   22.84885034554532   18.09373624843824
C         6.76846890843655   21.59239264973137   11.04860176702435
C         5.78644546037293   21.30831068360747   10.11031479089976
H         6.01614013529246   20.70355952261034    9.24436870691806
C         4.50934216103961   21.81896402809113   10.26692984911779
H         3.74881084735141   21.59119953092169    9.53281430481770
C         4.20630547015190   22.62229581853393   11.35239961735052
H         3.20813761649103   23.02023038119049   11.46808673879993
C         5.18725146545867   22.92184009043876   12.28546800173600
H         4.95693648066110   23.55103935345970   13.13293696647871
C         6.45819216061566   22.40471313315446   12.13686331095188
H         7.22900044241355   22.62563431384304   12.86323722813365
C         9.29232750234706   22.58245100093843   10.70465124628617
C         8.76482348430204   23.50621897788961    9.80590934679048
H         7.86139304204727   23.26862308596582    9.26007309280357
C         9.39146331198488   24.72254236991924    9.61230626251873
H         8.97934156622681   25.43426649444366    8.91080920880901
C        10.54327244365286   25.03374325224807   10.31862958012510
H        11.02699087013353   25.98812564504482   10.16795272940144
C        11.06699091021353   24.12352014263869   11.22008929898518
H        11.96012613480422   24.36558063388731   11.77803117746020
C        10.44408929420500   22.90214240595319   11.41228015490453
H        10.84522168650629   22.19313616222404   12.12169072356348
C         8.58718306778993   20.20897640693792    9.36412545018096
C         9.31642040578288   20.66134703222401    8.27505800074257
H         9.83193296421435   21.60883534799729    8.33095051199477
C         9.37163718148895   19.90644635476303    7.11453421261519
H         9.92467399654220   20.27359050476044    6.26278993287880
C         8.72984201396259   18.68210822877695    7.04361933924254
H         8.78408711385558   18.09290459336048    6.14043562379222
C         8.02692839530669   18.19470665589771    8.13438816208349
H         7.55410324060896   17.22408819751514    8.09443853289663
C         7.95874165712143   18.96080375273865    9.28542528416849
C         6.15790892550575   17.90996617660450   10.46111613772307
C         5.21051291992169   17.91869813552631    9.45069795772583
H         5.40212711115582   18.42467743071150    8.51604277759398
C         3.99822349396341   17.27999697056418    9.66240791893232
H         3.25717488955074   17.28386417729972    8.87706196132812
C         3.72574141466211   16.65366981851935   10.86646230370900
H         2.77252283993339   16.17079549709448   11.01941288450070
C         4.67202503567549   16.64647199273818   11.87854615058788
H         4.46084379851500   16.16710450034169   12.82329194897447
C         5.90059520262122   17.25159800055033   11.67102193873283
C         8.50276153709034   16.26993202468827   12.20930515913363
C         8.40741606046768   15.57838213125386   11.00906255046030
H         7.52945722913756   15.68301165932318   10.38686562559946
C         9.43394545459793   14.73746214823658   10.61434230446949
H         9.35696299736670   14.20154678813982    9.67894945917695
C        10.55294324423665   14.57627301825795   11.41310093219199
H        11.34964539454362   13.91800978854916   11.09916082952763
C        10.64924080069422   15.25946088774403   12.61596687648906
H        11.52052064336523   15.13232516387121   13.24197121612050
C         9.63229160974648   16.10656676343905   13.00855842146401
H         9.69725914863466   16.66167815317182   13.93636126733367
C         6.65137393965635   16.44885177990588   14.26709441010734
C         6.34434681333045   17.10718110741020   15.45161475855700
H         6.49183176668307   18.17742260808389   15.50974679824231
C         5.86218303147323   16.39739752066140   16.53711049227126
H         5.62159824948090   16.91399609061090   17.45479663796281
C         5.69297201704174   15.02585835122055   16.44699709833829
H         5.31799613796024   14.46978448988013   17.29385025282470
C         6.00955651270849   14.36302621066609   15.27108873020766
H         5.88215170043520   13.29207371076846   15.20388902543258
C         6.48796678426709   15.06881213331764   14.18296189436334
H         6.73776901832797   14.55268649420780   13.26565448817741

