108
CSD_code = NICGEN | q = 0 | S = 0 | Stoichiometry = C55H42CuF5N2OP2 | MND = 4
Cu        7.90538503427009    1.08291112301118    4.28444748596345
P         5.98067148574826    1.88973862188948    3.54370761342806
P         9.51366428692167    3.64234376523221    3.99979328098082
F        11.38811073837542   -2.63459312229349    6.02658500516823
F        13.86859929098234   -3.52192013372893    6.66055881267234
F        16.01535344871145   -1.85367233041840    6.42382244960987
F        15.65128287673769    0.70943672406095    5.55451373629893
F        13.17017817726596    1.58963417692439    4.93794487886266
O         6.94010981589490    4.28263260502098    4.13979092426559
N         8.85791662858376    1.11751173542952    5.97045267495180
N         9.14668003772585   -0.08165343577170    3.34717594815661
C         8.46514485241258    1.62392048543327    7.12672193534950
C         9.45696470414773    1.43192596754075    8.11050617082856
H         9.39083264464037    1.74722174205299    9.13443134595831
C        10.50926871079290    0.78259866664758    7.51302148002109
C        10.12260858019621    0.58296399515743    6.13928844210676
C        10.84644422216665   -0.03217733362326    5.11279504625295
C        10.43102861596233   -0.31396538117594    3.80478170975722
C        11.17336507538385   -0.94833335792635    2.74800288203660
C        10.29012820451247   -1.09928628604097    1.70466768813650
H        10.49195889197028   -1.54332534470210    0.74825741313381
C         9.05363334123743   -0.56395876357881    2.11640081494929
C         7.15823234728499    2.30344317995893    7.31062397356849
H         6.55207984580587    2.18662680561204    6.41282024404192
H         7.31358864878057    3.36745652057886    7.49192829712722
H         6.62612472748458    1.88782013216290    8.16536426595585
C        11.75512649825004    0.39802855637743    8.23665069227530
H        11.66335050509555    0.70717355172106    9.27609405414340
H        12.63571311340102    0.88304696151989    7.81605803927246
H        11.91678428123612   -0.67919800007130    8.21821685921910
C         7.79305737682392   -0.55348300816515    1.32992343642324
H         6.99385269703573   -0.09817882096315    1.91511291289556
H         7.50485618562704   -1.57291232895174    1.07404059613282
H         7.91917339506717    0.00316998594615    0.40117847456834
C        12.60694568543584   -1.35210911794504    2.67162999054783
H        12.81932597314058   -1.69368526922359    1.66015816122520
H        12.83935828021729   -2.16807987726403    3.35537823450441
H        13.26924197084411   -0.51639391085295    2.89454480613614
C        12.21285708598393   -0.50016779558523    5.46357132877292
C        12.42567315015927   -1.80236975125755    5.90679159492656
C        13.69575496947061   -2.26657689272254    6.23461896297272
C        14.79173872436853   -1.41832239576380    6.11531513770888
C        14.60383658075379   -0.11355185207903    5.67267970208393
C        13.32370714111879    0.32916359325001    5.35542975281225
C         4.73446875866915    0.58946627796584    3.27003355298636
C         4.14243854998867    0.30692113595254    2.04546958798186
H         4.38882568363897    0.89760648607919    1.17438382063085
C         3.24054688575132   -0.73814464064428    1.94147786887298
H         2.77916653538165   -0.95367948346444    0.98866535964802
C         2.93089338692895   -1.50840398990268    3.04973242798786
H         2.22553413217227   -2.32143201791174    2.96212480920511
C         3.53655080566152   -1.24471075235527    4.26885198266955
H         3.30729730279035   -1.85428179634141    5.13060892810322
C         4.44156115783026   -0.20686291242447    4.37588980436984
H         4.94105784144879   -0.00183645867848    5.31482747167323
C         6.08134813374466    2.77367329625082    1.95061265877149
C         4.99445532205818    3.45364840152146    1.40959996591552
H         4.03387558699310    3.41776259031177    1.90703983619498
C         5.14988787113944    4.17820798131295    0.24194882394004
H         4.30544264494773    4.70460973898133   -0.17919671383249
C         6.38575581264597    4.23963174705645   -0.38250550093072
H         6.50259486670289    4.81640569668531   -1.28796149432083
C         7.47069026287505    3.56964367882402    0.15753081385461
H         8.43720844108828    3.62668676476757   -0.32096278340950
C         7.31839202089007    2.83875461458460    1.32120769054450
H         8.15815016484011    2.32343550265288    1.76933204761901
C         4.97153601187453    3.11492722664025    4.45613309625742
C         3.70285187782490    2.97406974517753    4.99364918241972
H         3.16496928919907    2.04383414110038    4.88169006100587
C         3.12396773365650    4.04409285948873    5.65882311794667
H         2.13002072795925    3.94338762740856    6.06806817701127
C         3.80823517529950    5.23944562007367    5.80056710165302
H         3.34786623012186    6.06489761896684    6.32221293512160
C         5.08795723664322    5.38780452219036    5.28639241899078
H         5.63150386481921    6.31246496009088    5.41367417988564
C         5.66243047947317    4.32092113750965    4.61927690858495
C         7.46045959416491    5.25096286610352    3.32775031328763
C         6.74035907112341    6.24139325329999    2.68627762646290
H         5.67543248019017    6.33689264239377    2.84030941198870
C         7.40780240730610    7.09068856625500    1.81635090483021
H         6.85467233528463    7.86703616394577    1.30933904298887
C         8.76303573568812    6.94063161497314    1.58452925086776
H         9.26785165953415    7.60367420323259    0.89802892494359
C         9.47731557951338    5.93790385412209    2.22293803172023
H        10.53237389144178    5.81149925581531    2.02942385491683
C         8.83447289444269    5.09542172869053    3.11137873282233
C        11.19281543736814    3.58700688566870    3.26818013620531
C        11.42501495144202    2.58460384712460    2.33322502533590
H        10.62796511507395    1.89820750576525    2.08430877335955
C        12.66497916825034    2.45312090564884    1.73547559257533
H        12.83527394855785    1.66463998219395    1.01623274132312
C        13.68591395744406    3.32654315325555    2.06854732364294
H        14.65975109726991    3.22222404776824    1.61236210206351
C        13.45953014222663    4.33398802011783    2.99278694884704
H        14.25610577380123    5.01713463367254    3.25086114104133
C        12.22059706852727    4.46712629525888    3.59142032716418
H        12.05129024695156    5.25134260160096    4.31654765852345
C         9.87814026352326    4.41191899200705    5.61966906973787
C        10.89043978094975    3.83839247495013    6.38537461292998
H        11.47859738680874    3.03782516764759    5.96350631086595
C        11.15089669306536    4.29315201732471    7.66285820090089
H        11.94348790069395    3.84264697842978    8.24230297215963
C        10.39402920282395    5.32012512605809    8.20248416179347
H        10.59240704179627    5.67452579609753    9.20352126420913
C         9.38320646866729    5.89332328886010    7.45038401966194
H         8.79243526492062    6.69896032823768    7.86417694861027
C         9.12342602760934    5.44242528916292    6.16831849719915
H         8.33833177043691    5.91096080897122    5.59343468349781

