99
CSD_code = NICGUD | q = 0 | S = 0 | Stoichiometry = C49H43Br2CuN2P2 | MND = 4
Cu        1.37505829089197   -8.36019938397003    4.55564686289994
Br        2.89664269978754   -9.48603052331681   10.19022552417276
Br       -3.16066917242219  -10.68611418713717    1.49672669247613
P         1.03878544119420   -6.06314944745079    4.53293665076348
P         3.23462783703311   -8.97183055980172    3.30078313236004
N         1.46722012692016   -9.08332478531878    6.42073119895507
N        -0.25638248321297   -9.38267535467927    4.00265389624938
C         2.30829315869056   -8.80514945025258    7.40048308510982
C         1.96309017247165   -9.55995209071877    8.54728301870593
C         0.86110917966541  -10.32827479555956    8.25070920496426
C         0.55332679744781  -10.00844140340133    6.89083598213921
C        -0.51068568303175  -10.52565937160111    6.16789342525982
H        -1.12833047778104  -11.24031596235093    6.69659516144083
C        -0.89510964723934  -10.25689049578547    4.86314022476168
C        -2.00112869525146  -10.86222747449737    4.18731848871892
C        -1.97423849003014  -10.32052412139776    2.92309546122871
C        -0.88808528494944   -9.41614779419819    2.84310212313973
C         3.41945009782159   -7.83069542660388    7.28913056385164
H         3.59276096511444   -7.58473219136940    6.24304119302063
H         4.33082006020356   -8.23639542476174    7.72673397043870
H         3.17234392031318   -6.91222603919132    7.82455911789429
C         0.14047674304174  -11.27830253382749    9.13697765954018
H         0.61657911542237  -11.31298901865155   10.11475539919490
H         0.14719221019255  -12.28249565492842    8.71213078582552
H        -0.89810988843286  -10.97289346670330    9.26818054965410
C        -0.48434279308024   -8.62982416397458    1.65357259072978
H         0.23369733619924   -7.86465377368759    1.94231469004369
H        -1.35239642498807   -8.16217373825493    1.19040632216188
H        -0.01902241602530   -9.27964317950948    0.91032150152278
C        -2.95503311860035  -11.86000634815764    4.73678820582152
H        -3.69302540558125  -12.12699197194169    3.98310191315055
H        -3.47650804330893  -11.45794870141352    5.60584199118576
H        -2.43156350781992  -12.76574137762379    5.04477980300491
C        -0.39902179827973   -5.62297096913296    5.56094151548646
C        -0.95960858615776   -6.61370358499109    6.35792650755002
H        -0.53595878881155   -7.60741550742457    6.33425054738288
C        -2.04854294288936   -6.32643381453888    7.16183135302691
H        -2.48104244634767   -7.10019642385677    7.77916953949650
C        -2.58380658762672   -5.04939328616077    7.17073638873804
H        -3.43495415898018   -4.82349026211860    7.79615315666124
C        -2.03066621110641   -4.05894746469224    6.37317122846070
H        -2.45031717264466   -3.06330629544294    6.37967356078197
C        -0.94283120728634   -4.34015491536031    5.56832153612480
H        -0.51298528136721   -3.56840531541119    4.94371215592293
C         2.40018340505463   -5.14297876157778    5.32313309935025
C         2.25736416188444   -4.35857782344536    6.46138002743851
H         1.28338408885832   -4.22283239451795    6.90902097720628
C         3.36777399195394   -3.75667810085255    7.02807893891113
H         3.25067113618210   -3.14631366831123    7.91180618045567
C         4.62482622559369   -3.93745742418663    6.47525049290007
H         5.48611458129971   -3.46760324431181    6.92617605476672
C         4.77711176746019   -4.73303979628149    5.35078274003937
H         5.75577483211710   -4.89540567039838    4.92286496769380
C         3.67151470370908   -5.33600773935719    4.78432603123576
H         3.78934206461336   -5.98279236405050    3.92368456904657
C         0.68255712423433   -5.04789785666753    3.05640087130236
C        -0.54859592077944   -5.26809751383372    2.44024762159288
H        -1.25030812494741   -5.95355114756958    2.89713211327044
C        -0.87090690875382   -4.61166249625614    1.26928786777666
H        -1.82865444143071   -4.78364787386428    0.80049126997473
C         0.03594337306766   -3.73442034246906    0.69454722518672
H        -0.21360091441934   -3.22272126117011   -0.22317634967332
C         1.26105549315893   -3.51391955035267    1.30087549875451
H         1.96753999755045   -2.82613169331962    0.85840429623229
C         1.58929283358125   -4.16890566637406    2.47539725949151
H         2.54625942377938   -3.98535283021136    2.94425248712268
C         3.00330208238013   -8.64360478488540    1.52262908746162
C         2.99952439300984   -9.62686738319363    0.54064849871921
H         3.18741463007963  -10.65788836759102    0.80374829675734
C         2.74574743046653   -9.28493655329889   -0.77663432335272
H         2.74534848698004  -10.05306512387033   -1.53638526399228
C         2.48601315987064   -7.96952628177463   -1.12419195857862
H         2.28486150937946   -7.71228911617513   -2.15341704633822
C         2.47151750022479   -6.98649339489461   -0.14731065423937
H         2.25223318168499   -5.96058254015050   -0.40566624460842
C         2.72236276092714   -7.32486326188587    1.16773494949220
H         2.68327333866502   -6.56547404749878    1.93911259270262
C         4.95463697889643   -8.42336567475385    3.58091518531672
C         5.55699539584278   -8.86520312810246    4.75803533235265
H         5.02188436374953   -9.55762599631040    5.39450196752319
C         6.82320508803536   -8.43375193068107    5.09932848422266
H         7.28496510395204   -8.78357765383380    6.01092426142020
C         7.49991873628599   -7.54973570684480    4.27299347151541
H         8.48922547306960   -7.20877153088750    4.54018089495751
C         6.90584266458408   -7.10666337026888    3.10334009765321
H         7.43363599933252   -6.42258653469157    2.45413850759015
C         5.63627689668712   -7.53569379089723    2.75642407057013
H         5.18265064065128   -7.18762100478943    1.83859881595859
C         3.47524163263044  -10.77689970234236    3.35092967788336
C         2.45792650148284  -11.55407297617904    3.89150484996045
H         1.57126154329123  -11.06670414602262    4.27010848609301
C         2.58855987750738  -12.93031354111793    3.94777714038007
H         1.79509362040232  -13.52963875767356    4.36974403081668
C         3.73733415632887  -13.53606978644315    3.46734837068430
H         3.84264079468989  -14.61006927878695    3.51267567954578
C         4.75654366882700  -12.76421473374231    2.93038641130014
H         5.65278309230083  -13.23786256542729    2.55641725305122
C         4.63108029755769  -11.38902470726091    2.87084357361741
H         5.42724866730544  -10.78710935718907    2.45356738341006

