48
CSD_code = NICHAJ | q = 0 | S = 0 | Stoichiometry = C16H22Cl3N6Y | MND = 6
Y        -0.20596001370282   15.35771468969000    4.26248431975320
Cl       -1.28262922448957   17.56282166966364    4.30980393954041
Cl       -1.27323968065300   14.23981098327026    6.16884165339764
Cl       -1.33314692491131   14.29019834204366    2.36226255296508
N         2.93396142241006   16.01173445392332    5.40824279957177
N         2.89551381446187   16.04689832431045    3.03538011663575
C         0.14759590779818   11.70202809311507    4.20789319331811
H        -0.40773836975958   11.99958882989699    5.10036559388418
H         0.26372737363608   10.62219710194682    4.19244478778317
H        -0.43794615095668   12.02124070314546    3.34258984049869
N         1.61621889735421   16.15939476196900    5.68234448455185
N         1.56958277802335   16.19772786995867    2.80617179421156
C         3.36442188173722   15.34102891773115    4.20432787100608
H         4.46003286614627   15.33530039305955    4.18649955429499
N         2.90358357819404   13.97301524897516    4.19153702915022
C         1.44821266367564   16.88252128708206    1.67926573349462
C         3.62953553797921   16.63820315140206    2.05268846258683
C         3.64469527242217   12.83111887439894    4.15861806553523
N         1.57964042647402   13.68989502534644    4.21238803622764
C         2.72798596387344   17.18083364832188    1.17050077973976
H         2.95198124106718   17.72272119586143    0.27506221418438
C         1.53187425734362   16.80835126902030    6.83358406212144
C         0.22748827921900   17.14519963709819    7.44362228074309
H        -0.35107984226077   17.76839934840152    6.75782528044520
H         0.36702092614440   17.66946987338895    8.38456134768136
H        -0.34809502241290   16.23226383603048    7.61291650550213
C         1.46663966208931   12.37062793628685    4.19329519639173
C         3.69985341190579   16.56874967617330    6.38663482425517
C         2.82769283238363   17.08605733882901    7.31251078415384
H         3.08093625786619   17.59831836079805    8.21754168192120
C         5.11456989580365   16.64222681879865    2.02784028972428
H         5.52359411813726   17.15039719843240    2.90121507495473
H         5.45124113469616   17.16949730338402    1.14017494681592
H         5.51318468598071   15.62825474298816    1.99346603708078
C         2.74990792300824   11.78955877144645    4.15911748902668
H         2.98026148236377   10.74451688154647    4.13771621871792
C         0.12487279340528   17.23323459229990    1.11998816882506
H        -0.45521393409834   16.32429949695185    0.94486737880456
H         0.23410510934727   17.78266942503280    0.18946849778061
H        -0.43202830261635   17.83720611055163    1.84009508079292
C         5.12958341445295   12.81685186674055    4.12945388472070
H         5.51319232725436   13.32264249205619    3.24327741337120
H         5.47196583641887   11.78651393713984    4.10680277325698
H         5.54791188784851   13.29526534575504    5.01512304991195
C         5.18496160190955   16.56669198123409    6.36680180435937
H         5.57969543982471   15.55063929671041    6.35924965863897
H         5.55050061889575   17.06613183323980    7.25913197289860
H         5.57003394430498   17.09897106455303    5.49690547477192

