114
CSD_code = NICJIU | q = 0 | S = 0 | Stoichiometry = C45H62N4OPY | MND = 5
Y         8.01703644507054   13.16135845267196   10.65611472517330
P         6.03519251886942   14.25778420985829   12.58106305306733
N         7.15158642307290   11.23284264112452    9.96302087696417
N         7.46015793396334   13.74887533857841    8.50531142632242
N         8.44559544694835   15.74938863958680   10.30529606644301
N        10.00377364332886   13.37939909602382   11.40054941993489
H         9.89353160953744   13.96447016952215   12.23182565139328
O         7.15105642730714   13.16617861553707   12.53896305298086
C         7.12383858251174    9.26032864428066    8.49770908866710
H         7.30037473379053    8.69043619097346    9.40686591376402
H         7.80095486846382    8.91736335331871    7.71924910044767
H         6.10346387777864    9.05994859330547    8.17146086589803
C         7.31348852738682   10.74009530767079    8.74629935029325
C         7.60497670842080   11.51909607669135    7.62322541629908
H         7.74500132128212   10.96367152142366    6.70674716340809
C         7.57980521584832   12.91278253552214    7.48650570799412
C         7.64587724799678   13.42760229287275    6.06654755256833
H         6.74932294309422   13.99702155847732    5.82371396856233
H         7.73239657199220   12.60712316576224    5.36096219179918
H         8.50567161747303   14.08472118327418    5.93400598963475
C         7.27865357883957   15.15626671617690    8.18295890619349
H         6.30965279252743   15.30913293553884    7.68328870028789
H         8.05554378709965   15.51032052579753    7.49071074873616
C         7.29616630722663   16.03313553492745    9.43794563023930
H         7.29624807757532   17.09171797361032    9.12302509121553
H         6.38626615879850   15.84710120806901   10.02201406023728
C         8.37292635703042   16.60907127939191   11.48481420320390
H         8.42960830825575   17.67226331388877   11.20800406735639
H         9.19855079051067   16.38260402171755   12.15827952633325
H         7.43900871008982   16.44153009798689   12.02041025645773
C         9.70425042070143   16.03842546770263    9.61430833404299
H         9.73601154386314   17.08052887422877    9.26366212829771
H         9.83743811818317   15.36955227880817    8.76683030335921
H        10.53227458447998   15.87307967899853   10.30170379713998
C         6.47736915792667   10.43171101655072   10.92335156916918
C         5.07745691487227   10.31261307672028   10.83220649971807
C         4.40818481935976    9.56486175977012   11.78750311496883
H         3.33378512806744    9.48277522828416   11.75057774709230
C         5.09693228476482    8.91024114994813   12.79223488123751
H         4.55957784706905    8.31290629800531   13.51403606992881
C         6.46998087029186    9.02401819873113   12.87075033777714
H         7.00096710257443    8.50992089100543   13.65792840231073
C         7.17874568005754    9.78721991566978   11.95168432474086
C         8.68183073504267    9.90656620107322   12.07781367113029
H         9.05192159958728   10.59566775703565   11.30203089370614
C         9.37220711927499    8.55524957197341   11.87367581983666
H         9.08140090517789    7.85044317841693   12.64948765932043
H        10.45166752573203    8.68654714532488   11.91267893855031
H         9.11115405929073    8.12453404139569   10.90862572209304
C         9.05878904531898   10.49390043931118   13.44002233935030
H         8.55496841375093   11.44914655456092   13.57975962477032
H        10.13394551026566   10.65217301755576   13.48666713281652
H         8.77023589958734    9.82659221968241   14.24937168946305
C         4.31947276270414   11.02786298699180    9.73251575398883
H         4.96476406548765   11.09765941015731    8.85119199431283
C         3.99694867043838   12.45646966410956   10.17702152362875
H         3.37725072338987   12.44599916845483   11.07147305403564
H         3.46745992167809   12.98842553887417    9.38827835019382
H         4.92211588031956   12.99584143397566   10.40069045244941
C         3.04011423708548   10.30354258569033    9.31216645156130
H         2.26941081338534   10.39077116587742   10.07391313661388
H         3.23417994422980    9.24846240926772    9.13042203011809
H         2.65324098251209   10.74522514021435    8.39576365644440
C        11.09258473787013   12.57697027765643   11.59242189438873
C        11.58025548773801   11.76621113234003   10.53266423987478
C        12.71806932624099   11.00201431657641   10.71429994029845
H        13.09254441350769   10.40020949389646    9.89963268373406
C        13.40570601583656   11.00185188010563   11.91367316858597
H        14.29616168800213   10.40309132366636   12.03521683756736
C        12.94519029838530   11.78962457621207   12.95369038367686
H        13.49505784103737   11.79240279364648   13.88229646288222
C        11.80609148509762   12.56162084362873   12.82730771858276
C        11.33481915670465   13.42022803842183   13.98692276755982
H        10.23811558247237   13.46212359437021   13.96591732220717
C        11.70985551876089   12.86719339310324   15.36222305746847
H        11.42587426411645   11.82086588847107   15.44778565378578
H        11.18609861492667   13.42879028926234   16.13402723112843
H        12.77650434118986   12.95894754784003   15.55230617050256
C        11.88052832542330   14.84629622000866   13.83850613245011
H        12.96448830363931   14.83963944927419   13.93555573380274
H        11.46623664897246   15.49886268077088   14.60590730170236
H        11.63500317754491   15.25856416007187   12.86126341383216
C        10.91601787227759   11.79844054649618    9.17118424734268
H         9.89218235791016   12.20379881216138    9.28754747096326
C        10.79578117580072   10.41759949604429    8.52447305534580
H        11.77084039117311   10.02711868062521    8.24383450720642
H        10.18930469723248   10.48640333769549    7.62396095081083
H        10.32501936536315    9.71513703845335    9.20742575197110
C        11.68922897112505   12.74711966145983    8.24868238021451
H        12.69656465284923   12.37043081182948    8.08266994841422
H        11.76514455042793   13.73245760634784    8.70287941172944
H        11.18917683653325   12.83751299759305    7.28540457784511
C         4.62017553524801   13.41332859246205   13.42152655958325
C         4.79504903968724   12.15914802286132   13.98582284023492
H         5.76392880719328   11.68481122179548   13.92353316629852
C         3.73594071847506   11.52359862255794   14.60737284102441
H         3.87926954475655   10.54855982672469   15.05088481336446
C         2.49445755275102   12.13453109189552   14.66131343906759
H         1.66542953605685   11.63741040097582   15.14486772971800
C         2.31326292879869   13.38473456487921   14.09081614081851
H         1.34242660374673   13.85989594252762   14.12635262789965
C         3.37214321096103   14.02094146728056   13.47081916698485
H         3.23245581998994   14.99236303621800   13.01550748990133
C         6.46185448849105   15.23561437559968   14.10166746115850
C         5.78521150836091   16.40965579773247   14.40801498903267
H         4.98234187468083   16.74737076573577   13.76611432350374
C         6.13090861266359   17.14148554536301   15.52891488456593
H         5.59738286052094   18.05175018308022   15.76476750887228
C         7.16364585790666   16.71294780562765   16.34754652549500
H         7.43473729542383   17.28771943749036   17.22148014546411
C         7.84750054531871   15.54778629937986   16.04225527508237
H         8.65225749912178   15.20948579346101   16.68048561248436
C         7.49752439484212   14.81513063810384   14.92341491518621
H         8.01986884830647   13.90113902226567   14.67670595240077

