91
CSD_code = NICKOB | q = 0 | S = 0 | Stoichiometry = C32H52O6Ti | MND = 6
Ti       10.68422433946720    9.70555928032473    0.47296962960591
O        12.74377427439136   10.24290482497869    1.51561813344443
O        11.48185977120930   10.57805022238125   -0.94022587167429
O        11.31102221500335    8.13901247510599    0.16969590293136
O         9.06311913230200    9.79990400413738   -0.07710052997615
O        10.43614643890863   11.98696426584706    1.05252394427427
O        10.35551465498500    9.46834613620857    2.26950193382437
C        13.50974736759697   11.19991954724820    0.78362853970321
H        14.44107054972501   11.41722193047797    1.33060284993959
H        12.88540297578417   12.10245106742716    0.75665782724148
C        13.80576489606242   10.75676969629127   -0.62194748808655
C        15.10352126505597   10.64660011554081   -1.08950334463359
H        15.92926596883425   10.84244312465679   -0.41713462577893
C        15.34746664665246   10.31126617345130   -2.40892139243919
C        16.74449374207144   10.16199916108029   -2.93723285060864
H        16.97146482692645    9.11169720819133   -3.12433500501884
H        17.47058775588291   10.54607106040199   -2.22464210247903
H        16.86058861485638   10.69940700565318   -3.87710034192767
C        14.25468582338036   10.12368112347014   -3.24908508624026
H        14.46513524272913    9.89670597699820   -4.28222937291136
C        12.94129189734438   10.22024150044613   -2.82346990480838
C        12.69199510897866   10.49496168851266   -1.45052136965639
C        11.77479925964072   10.05254529584619   -3.79014700302341
C        12.21632297677946    9.85924420569788   -5.24496259954617
H        11.33418615444995    9.77652471936026   -5.87758215183007
H        12.79898220827370    8.94889533087344   -5.36498898749908
H        12.80173386862605   10.70693664342789   -5.59344699407142
C        10.88935954305020   11.30511746356046   -3.72727231335858
H        10.05335141499141   11.21358199782669   -4.41906483459058
H        11.46729486482218   12.18792831972456   -3.99492922412465
H        10.50029638655850   11.43086007122005   -2.71982894657629
C        10.96153329366499    8.82438157140042   -3.36445369873204
H        10.62236286526638    8.95051481259107   -2.33376810630062
H        11.57829986266290    7.92917506316001   -3.42722187557915
H        10.10100026280493    8.69377548173261   -4.02041997062041
C        11.51959993686777    6.88624879266232   -0.37352009198492
H        12.25170695522390    6.98309484770182   -1.20331534093975
C        10.22129734253245    6.28481043047057   -0.94201962991580
H         9.56431251799540    5.98456008982078   -0.12934994410035
H        10.44835154342973    5.41486522927200   -1.55453403179832
H         9.70837283527201    7.02642750283416   -1.55109950185337
C        12.10641494979612    5.92929510825870    0.68000426557654
H        13.09808103874943    6.25627758867923    0.98344493920282
H        12.17633895280412    4.92257205908461    0.27522852951730
H        11.45813175456426    5.92280028924998    1.55400491996581
C         7.81886835327281    9.39270190270369   -0.51974873495324
H         7.79535076120073    8.28349019931682   -0.56469097819819
C         6.71377676124319    9.85526539981724    0.44717620525797
H         6.97464550004195    9.57994421283713    1.46657734750995
H         5.76420642196875    9.39753148373338    0.17969199541078
H         6.60521422793992   10.93745295263798    0.40135285831098
C         7.53394799746573    9.93903232397525   -1.92935102889195
H         7.51869497351793   11.02724560945801   -1.90409462838915
H         6.57210034324985    9.57781503006675   -2.28573364224154
H         8.31421043416990    9.61982371702485   -2.61468730741607
C        13.52663699977162    9.13017806764634    1.89777789769123
H        13.97307285164578    8.64080543619350    1.02372694796268
H        12.85470385566312    8.43988707468177    2.40675364005128
H        14.32745312911426    9.44948115189574    2.58158372510337
C        10.29737492974063   12.18001699635746    2.46127041309133
H        10.14357585933902   13.25020876547265    2.67045850490540
H        11.25871120860283   11.86051994239610    2.88582898432025
C         9.19581101629299   11.35066640800673    3.06066668634934
C         8.11862113768883   11.91993172337004    3.71541990459192
H         8.03196354670530   12.99803913655546    3.76411667602848
C         7.16556788141032   11.12025568649467    4.32258641516062
C         5.99032496159826   11.71656094558839    5.04136500786073
H         6.18749661620783   11.76977404769482    6.11325260872416
H         5.09896593991250   11.10921228653720    4.89557240593192
H         5.78951112753958   12.72439846583164    4.68478862909135
C         7.34881827350028    9.74176731157538    4.29315949262550
H         6.61664582748289    9.13814665351260    4.80608990265640
C         8.40986426869024    9.12927886156104    3.64651371055648
C         9.34079119359108    9.94960473669104    2.95307451594243
C         8.60978140189064    7.61845935508133    3.67998324290444
C         7.57722420102675    6.89303707497547    4.54987757585783
H         7.61464738709670    7.24422672796794    5.57846088765088
H         7.79591822428574    5.82660391054602    4.54987064331997
H         6.56931420917682    7.02645891956728    4.16364647179040
C        10.00346715891964    7.32223966936843    4.25302568455644
H        10.76453840858164    7.77782818620591    3.62417205360696
H        10.17564772292745    6.24769741185446    4.29612673354065
H        10.09094116439633    7.72817303177462    5.25928061206142
C         8.51385708496898    7.06111036007295    2.25341683993729
H         7.50367879447048    7.18939158800024    1.86732463577276
H         8.74582040315828    5.99594377171044    2.25697797623847
H         9.21468106823963    7.58560599290082    1.59889391149182
C         9.44530477916979   12.68600351182095    0.32593345206286
H         8.43924791436520   12.39060175274268    0.64337857050556
H         9.59199790033118   12.42911661859478   -0.72281670587366
H         9.56803148146225   13.77025508389539    0.46834237697874

