42
CSD_code = NICLIW | q = 0 | S = 0 | Stoichiometry = C15H16BrMoN5O3S | MND = 6
Br       -0.46273777084264    7.41654211767799    7.91553338782445
Mo        4.21598062243595    1.80502672679221    9.26379849238046
S         8.20169479098250    2.29498779766100    7.10793434897006
O         2.39705667378062    2.24067652437985    8.91636512323549
N         4.53926393485256    3.29120521763399    7.74117572282635
N         5.78987353095492    3.33928431249087    7.22124160348411
N         6.10497865004609    1.49090195988139    8.56218289111993
N         3.74986909091489    0.63207295524728    7.27666614553408
C         0.46528831122082    5.79005913500799    8.24597642211281
C         1.74449108672855    5.63129748146568    7.76481371930479
H         2.22150658904785    6.42895523370218    7.21437891408712
C         2.44386850512220    4.43960313416253    7.99398130972353
C         3.78497436793717    4.31207363660783    7.50684337976723
H         4.20136048361288    5.14180159243115    6.93314118957522
C         6.54956098861756    2.38394152239899    7.68904211689370
C         8.26772228910596    3.73094528452752    5.96041984014619
H         7.81931432976900    4.56048995200481    6.50340261988354
H         9.32952866940662    3.90078402201920    5.78947485553499
O         4.08112679712745    0.31097769639378    9.94474931502318
C         1.80931964197595    3.39310979836899    8.71847460832598
C         0.50249514759889    3.59923774715484    9.19310417389474
H         0.03851988684861    2.80090454054145    9.75459104066962
C        -0.16470639019659    4.78201055371634    8.96725608151833
H        -1.16578425909670    4.92915701753097    9.34292375020498
O         4.58675416595032    2.97521564993340   10.36376244214180
C         4.33332365688854    0.43257046322207    6.06213150805264
H         5.10408048937137    1.07859434294376    5.68686796385856
C         3.77602697525754   -0.66297146308360    5.47137993557500
H         3.96629250214789   -1.13145320090082    4.52793188659983
N         2.83972916776449   -1.13479135797772    6.34479603778009
C         2.85917549498782   -0.32480825056643    7.41372001672588
H         2.24199986734701   -0.44863148160230    8.28389866595930
C         2.01229929840225   -2.29246003968908    6.15222370955566
H         2.62952208178777   -3.18832798061406    6.06516181078100
H         1.41786168522112   -2.18681314956703    5.24302987281451
H         1.34572200577873   -2.40378562533153    7.00458504010640
C         8.13306022807592    3.21902410395911    3.53953481637103
H         9.20550648092855    3.24731079575380    3.43733218686913
H         7.57296299444051    3.00872614741832    2.64473214669610
C         7.54012746233263    3.44245316619921    4.69829466186147
H         6.46407859217338    3.40732136435470    4.79624353399672
H         6.79631088318610    0.80148055574957    8.85320271222760

