102
CSD_code = NICLUG | q = 0 | S = 0 | Stoichiometry = C46H44O8Si3Ti | MND = 6
Ti        0.95655215384398    1.54675132917776   13.53560714356226
Si        4.44372070584831   -0.84952098468902   14.74257296982097
Si        4.00271170563983    2.16118916147360   14.74538437878734
Si        2.51172026617524   -1.00498596310755   12.33767325236229
O         0.36986523162555    1.15795582871672   15.31991938044502
O         0.37205102638704    3.40202586538209   13.85092894028244
O         1.25916017517385    2.21187960049331   11.75448770204023
O        -0.87276682656120    1.15732010912868   13.00658091785013
O         1.38332361004739   -0.10841661967768   13.00838548379610
O         2.54351833138205    1.98769641431230   14.14712727550173
O         4.80182528486579    0.73046457294119   14.83989709051792
O         3.78636009816804   -1.29583852525420   13.33642018959968
C         0.43101189821438    1.94739394814972   16.31009143188998
C         0.52938943191195    3.98706349437978   14.95805867705917
C         0.54537393695949    3.33406370015380   16.19624173270011
H         0.63661243733143    3.92794118097938   17.09151255979220
C         0.31992385322514    1.34324002859523   17.68887435637395
H         1.03756779467209    0.53112633497491   17.78392198871713
H        -0.67594988624444    0.91818076221024   17.80990960969506
H         0.49497359433184    2.08362672383691   18.46207397003404
C         0.66465522329397    5.49310602031401   14.95144629344410
H         0.55815809498150    5.86674371173877   13.93585367426084
H         1.64616951691132    5.76227130572550   15.33604535820868
H        -0.08796320132256    5.94744626336334   15.59151471783839
C         0.65409506027351    1.86739869644137   10.69925042288849
C        -1.22358861068469    0.79385370518537   11.84911559670138
C        -0.52787441098691    1.12044640325609   10.68045117705983
H        -0.94089154970646    0.82506372196512    9.72870528670254
C         1.23023341010180    2.31948945302242    9.37791203973172
H         2.02997638103891    3.03373319986089    9.55557331258795
H         0.45815631181520    2.76741119207651    8.75706065067481
H         1.64206084150175    1.46073191805468    8.85170120804186
C        -2.51641546921669    0.01819405518587   11.71365406620578
H        -2.87921942469636   -0.25960699942749   12.70058409362763
H        -2.35771398806577   -0.87406929346371   11.11329968566178
H        -3.26575639652159    0.63320634163844   11.21856088491915
C         6.09684188006292   -1.74223358109208   14.86903131747177
C         6.22910814314400   -3.05006329336421   14.41633257096808
H         5.38218192816533   -3.52112203350050   13.94032058394990
C         7.41809156771115   -3.74135972259405   14.56228302919568
H         7.50339475250971   -4.75677297707542   14.20108249699294
C         8.50127351305083   -3.13350712310049   15.17480808515863
H         9.43118909426125   -3.67163611822534   15.29279876377427
C         8.38613308483412   -1.83307377317816   15.63635514593448
H         9.22859353777543   -1.35472490645731   16.11568308035404
C         7.19283755735473   -1.14927289832134   15.48509197631704
H         7.09916393758470   -0.13509693029514   15.84242767862471
C         3.30714045159844   -1.39331350885511   16.16428740880254
C         3.82815031086685   -1.76183055268180   17.40482945315673
H         4.89760433047527   -1.71828216756050   17.55627955432105
C         3.00576666199301   -2.18476399197319   18.43422157148831
H         3.43162368537196   -2.46316692405900   19.38780843175075
C         1.63682437612359   -2.26157752951806   18.23733900520041
H         0.99212494930698   -2.60143874965194   19.03556839986670
C         1.10069941849046   -1.90276383639675   17.01086807698984
H         0.03372069748725   -1.96212043347198   16.84928400231421
C         1.92688765302648   -1.46721297605752   15.98728479055678
H         1.49605940597631   -1.17856769595050   15.03683644266177
C         4.95487840904031    3.33550444969151   13.59982461458216
C         6.33772974435766    3.47981595172565   13.61354576867477
H         6.91858438264737    2.88591804685075   14.30299972137816
C         6.97155561996890    4.36079965161193   12.75407637696166
H         8.04787047917839    4.45727118792421   12.77455835524669
C         6.22749562914443    5.11914396572315   11.86607733326752
H         6.72086978873477    5.80725152023589   11.19405010744627
C         4.84795328366842    4.98883281756536   11.83926241849643
H         4.26471972996567    5.57707031851005   11.14404636275716
C         4.21996865253453    4.10597255330464   12.69955462472706
H         3.14194253700503    3.98376905230126   12.67514063490980
C         3.87290446939296    2.86303564692742   16.50946753303856
C         3.86198017573473    4.23745022940983   16.72782538770091
H         4.01544691842052    4.90002626185214   15.88717232656757
C         3.67390342527419    4.76386394173737   17.99356590459266
H         3.67009695632818    5.83500254794767   18.14121289152054
C         3.49443667102640    3.91716097625170   19.07472385972149
H         3.34699183242152    4.32456200378726   20.06488663129895
C         3.51411633517957    2.54650108069263   18.87985381277848
H         3.38406541792890    1.87946557742489   19.72057982051604
C         3.70139323179246    2.02900666211826   17.60978764103719
H         3.72383335904176    0.95906988046713   17.46314453603421
C         3.29569152006474   -0.19305895626396   10.80648451775137
C         4.00777508972085    0.99132564198986   10.97594115370272
H         4.07255063254534    1.42051017546561   11.96542090986451
C         4.62966377674785    1.61407843239991    9.90816801863631
H         5.18165412328684    2.52985018693612   10.06701334158450
C         4.54866480441230    1.05870688096165    8.64104774314959
H         5.03701008463851    1.53733530809248    7.80403345096999
C         3.83991219348351   -0.11646097833058    8.45175912160270
H         3.77528097548263   -0.55478115141290    7.46535416068338
C         3.21987755402468   -0.73351538820937    9.52624587279124
H         2.67324556462923   -1.65388466035028    9.37429442912325
C         1.76419737710957   -2.69425723176405   11.91924873828355
C         2.55350608536743   -3.76208804574118   11.50781730241335
H         3.62287481449883   -3.62511668395895   11.44848101620097
C         1.99051787108793   -4.98325938315169   11.18158740555783
H         2.61951821106586   -5.80346852042610   10.86507851474303
C         0.61847477109829   -5.15617196046880   11.25888490102291
H         0.17606914293168   -6.10846492493912   11.00265244254254
C        -0.18361279081516   -4.10392614969021   11.66845694902993
H        -1.25481042782464   -4.23764501209474   11.73354784469831
C         0.38839473215820   -2.88681839507318   11.99362209975195
H        -0.22693070336670   -2.05925844175896   12.32068401741035

