81
CSD_code = NICNOF | q = 0 | S = 0 | Stoichiometry = C30H45FNO2PPd | MND = 4
C         2.55744500144664   13.07472419135668    9.25718202498541
H         2.31011097801713   14.10032546838791    9.56474826261853
C         2.24551691594808   12.93401552326246    7.76293230112625
H         1.21411352374075   12.65689382173650    7.52968220252156
C         2.68812656220094   14.24816486358460    7.09301652135017
H         2.26800447761376   15.12737475980900    7.58169671305794
H         2.37152345594901   14.26281521053490    6.04935651858601
C         4.22555166725609   14.18608659716093    7.20585692722821
H         4.69478996275280   14.24475644247908    6.22338394967668
H         4.62880284838939   14.99405829591502    7.81716438409638
C         4.47709659666474   12.81130207627933    7.84222853645378
H         5.48573859473658   12.43213914190458    7.67825903687670
C         3.33440452923040   11.99118307507967    7.25141585837496
H         3.36551584710829   11.94118497692509    6.16365628187380
H         3.26722963485985   10.98682409242184    7.65235765707167
C         4.08971879512599   12.88667259998375    9.33027471780497
H         4.55313462281437   13.76752590673677    9.79113982532751
C         4.55956760518998   11.65557501150811   10.11818167765279
H         4.53297520181534   10.76487858479021    9.49598401088122
H         3.91035937866212   11.48761962990652   10.99097451010636
H         5.58325356458461   11.79262600885375   10.46386565458284
C         0.78910993489519   10.05038844206878    8.40585542818584
C        -0.45313439664790   10.71125568398052    8.38759471087994
H        -0.67784241099439   11.40134353815480    9.20711700164714
C        -1.37391536186589   10.51040614802034    7.37805808227719
H        -2.32121982931722   11.02707126412084    7.37103878031449
C        -1.06102253624578    9.62879737704202    6.36642316036358
C         0.14735405499659    8.94452411775329    6.33051515501482
H         0.33424075532373    8.27294023259859    5.50828034016849
C         1.06615626759174    9.15249167665165    7.33443121630457
C         2.66403874856085    7.67168012233664    6.36370878256042
H         1.98470395847536    6.81468314324136    6.29661878738923
H         3.66608329716226    7.31680885226007    6.60322665616755
H         2.68557756125796    8.19170654567256    5.39973884590057
C        -0.55975637938702   12.54865867038040   13.15823850189897
C        -1.22139419893962   13.14167204365151   14.22752321682278
H        -1.03917219138559   14.17562664320895   14.46054022160219
C        -2.11452580634568   12.43482181859874   15.01314309960607
H        -2.61297543311891   12.92456878113604   15.83572756027972
C        -2.36298101409970   11.10461569736219   14.73518120805540
H        -3.06436043244439   10.54247437793337   15.33306378779161
C        -1.70526087083767   10.47981493141349   13.69156668795365
H        -1.90699786396534    9.43891276187315   13.49754172831822
C        -0.79574980447035   11.18347220704951   12.90633045479028
C        -0.26207386514264    9.22183867461148   11.65346863670801
H        -0.00372608749628    8.63215171280168   12.53893521243303
H         0.43149969339119    8.99427827442901   10.83992743944064
H        -1.28388918312664    8.99532719362596   11.33396348428236
C        -0.34924753666362   14.91249935868817   11.42178781368549
C        -1.43545948161129   15.51927407184520   12.30691575101368
H        -1.93501495942403   16.30957351626531   11.74592272274436
H        -1.02285810498043   15.96968413680034   13.20643990791688
H        -2.18677902758947   14.78397509306138   12.58279469601420
C        -1.01878573488688   14.27786365338142   10.19451574887001
H        -1.69215213290491   13.47685236406876   10.50892974700881
H        -0.26616191901240   13.86241788161114    9.51387964567970
H        -1.60441434658786   15.01741507641583    9.65008339937706
C         0.59024425248412   16.03221127682169   10.97642681234248
H         0.04238793388932   16.74884263419060   10.36507815519469
H         1.41219415819454   15.64285384813287   10.38106326710777
H         0.99716875883922   16.56549574383679   11.83306636878792
C         1.98763744001485   13.87960607693325   13.37456649575280
C         2.39926793394213   12.50134564133104   13.90753966488674
H         3.32997250940779   12.57071689918689   14.46828417223470
H         2.55426428640766   11.80896945031333   13.06618184710431
H         1.63485367581799   12.08547504452068   14.56303520609544
C         3.17786868245187   14.46279531348373   12.61198665271399
H         4.05206610354263   14.50058587971385   13.26126538416606
H         2.97674995080662   15.47164019275369   12.26300253244515
H         3.41047468225087   13.82933802330705   11.75697463631980
C         1.60628003628776   14.81107639254985   14.52003167205703
H         0.91931487511738   14.33490218141560   15.21373021220235
H         1.16236901741339   15.73322338651762   14.15118532310090
H         2.50532207710103   15.07451274905433   15.07719280935329
N         1.65048469149419   10.23850106218520    9.42224492174098
H         2.52528366717505    9.74288826509454    9.27733159217514
O        -0.09502954362280   10.60464165488460   11.89670748447534
O         2.30327236346268    8.53557716741613    7.40605604035719
F        -1.95762543979053    9.40889865682541    5.36090107996976
P         0.65704516119196   13.44243224037200   12.09607035007414
Pd        1.37485959993490   11.92643785638085   10.53089212769481

