105
CSD_code = NICNUL | q = 0 | S = 0 | Stoichiometry = C42H57FNO2PPd | MND = 4
C         1.58923042810280    3.86127383395769    9.84295823146156
H         1.76418727121661    3.37077346926365    8.87542005014313
C         2.92585273286287    4.44894452289225   10.35066720990258
H         3.74609677682251    4.12806843397700    9.69737155087138
C         2.69374423200753    5.96257061588344   10.19205867172531
H         3.42505013960911    6.56917321593988   10.72612568952608
C         2.60435251738069    6.28520496633103    8.69328222270465
H         3.40851913420374    5.81165779142748    8.12928844922528
H         2.66956415876262    7.36112575623496    8.52873523871977
C         1.21484025762710    5.74477523842560    8.29670035607969
H         0.54830567720995    6.55541322476695    7.99899266827253
H         1.26540124517666    5.03380492331492    7.47143871112601
C         0.71668124508939    5.09870658796584    9.60310940141016
H        -0.36067646521948    4.91295399394927    9.61049424982862
C         3.30510532408070    4.06282656069833   11.78799529461658
H         4.38332549773335    4.12909085464818   11.92885577858457
H         2.97855231349235    3.03413108328098   12.00783266790308
H         2.83334883189671    4.72957290650693   12.50510851702965
C         1.23750911981961    6.11345755001464   10.62074519595328
H         1.05651431273747    5.83167530401135   11.65111794717104
H         0.84582272823745    7.11540014851878   10.44894141165648
C         0.21247633919035    0.53643448007033    7.95185905712927
C        -0.27295584843132   -0.77250302359485    7.33017832546325
H         0.57240008557123   -1.43055258347206    7.11545767485631
H        -0.95585363159178   -1.28548889022645    8.00928733131837
C        -1.02311252097792   -0.48108575866841    6.02515508764809
H        -1.35685420640365   -1.43235321210950    5.59432368231382
C        -0.10251051298594    0.23027906479684    5.03702910901248
H         0.75557934453704   -0.40393510390666    4.80032444490610
H        -0.63760100274219    0.42838108275357    4.10594476576528
C         0.37195924589002    1.54116527210978    5.65921447091941
H         1.04355694603079    2.05622578400052    4.96260805481502
C        -0.83011656905308    2.43393560181301    5.96194643014784
H        -1.36085233273977    2.66663470140485    5.03630714589965
H        -0.49487244305798    3.37497651888960    6.40319033821851
C        -1.76336129231101    1.71396818641929    6.93343830599445
H        -2.62710246209897    2.35114661363444    7.15079440694381
C        -1.01002627712070    1.42660117580484    8.22935952460274
H        -1.67234476855615    0.91471175446284    8.93852886294891
H        -0.68147026748341    2.37628518215897    8.68064090699927
C         1.13249659791757    1.23695002193321    6.95099690800541
H         1.50615996806039    2.16949452802004    7.37749436250551
H         1.98763557379738    0.59680122460167    6.71979975232298
C        -2.23643024947597    0.39923526809417    6.31638510765322
H        -2.78433897482990    0.59491122516741    5.39216144455680
H        -2.91293575993035   -0.11386237373256    7.00405019958776
C         2.81038954601265   -0.16614855414112    9.71171555168227
C         3.05087432151959   -0.41455886785758   11.20784329434080
H         2.76298403221260    0.48827863273905   11.77392046401168
H         2.42869533972312   -1.24473771396581   11.55548420804724
C         4.51932954221125   -0.75205456423902   11.45510803217312
H         4.67239474986519   -0.94093093621206   12.52383396048290
C         4.88109205815937   -2.00653148669435   10.65935901135339
H         4.26299478702893   -2.84624357405390   10.98693364093723
H         5.92564590470163   -2.27124524838998   10.83732626161413
C         4.65997951895581   -1.74620138821510    9.16955612658516
H         4.92047055901142   -2.64649804782676    8.60056647720584
C         5.54516086609466   -0.58617803153421    8.72017941615527
H         5.40449819555913   -0.40003507120955    7.65262386146315
H         6.59584698643142   -0.83846756315428    8.87924038929625
C         5.17656480589163    0.66157432489324    9.51990549531121
H         5.79673856021711    1.50340503731923    9.19246833972256
C         3.70656135124706    0.99766003383634    9.27685181155349
H         3.56134616226405    1.21617788916612    8.21804352711342
H         3.42962847557065    1.88302155879069    9.85503472201296
C         3.18327206015405   -1.41573613537240    8.92104716601025
H         2.58683038257085   -2.26923801584093    9.24273583877650
H         3.01643467143485   -1.25655356162665    7.85291964246574
C         5.40174571107721    0.41066353434641   11.00842229647427
H         5.15019755763772    1.30820063342479   11.57686585672767
H         6.45181015260635    0.17552883349899   11.19557991422439
C         0.12852894712662   -0.90021699005414   10.50943350270854
C         0.08724319520267   -2.20338294666995   10.02539753677053
H         0.59133845909306   -2.44817258694500    9.10658791996444
C        -0.58720617619694   -3.20881410240798   10.69546481077436
H        -0.60082023267013   -4.20950778625455   10.29139547244902
C        -1.24170423800538   -2.92071591454701   11.87739634601706
H        -1.78002918104893   -3.69216837589263   12.40690366132053
C        -1.20312151549766   -1.63967607928911   12.39650348407126
H        -1.71266929844262   -1.43824160186254   13.32472686098219
C        -0.51510632624852   -0.62759703707186   11.73217477329553
C        -0.99362183846705    0.92988512067175   13.47793891682043
H        -2.08182044797779    0.81786306909283   13.45158696242709
H        -0.74087503822321    1.97712508813183   13.66370393174580
H        -0.56779640165607    0.29827884336695   14.26412187783832
C        -1.09728643709042    4.22096007471457   12.22515016679949
C        -2.05039511401288    3.64133406311040   11.36757684530275
H        -1.77461067619340    2.72166893362063   10.84334327838988
C        -3.30066026129858    4.19760641651319   11.18120208188657
H        -4.02222422205648    3.74759930867598   10.51684467972880
C        -3.61857720413479    5.35002913240304   11.86626091330196
C        -2.72224151342922    5.96681211688066   12.72993021885563
H        -3.02970477687213    6.86956100487028   13.23245832627377
C        -1.47403926380410    5.41403792106117   12.90762110843863
C        -0.76756018621181    7.14598097148519   14.38785737061955
H        -0.98073649852843    7.94942407237959   13.67427288347742
H         0.13398240743541    7.39249409645133   14.94817008489229
H        -1.60844890744813    7.04796281492716   15.08337694047049
N         0.10016835639861    3.63686051980386   12.41561085743341
H         0.69948439881645    4.19047578736479   13.02082306673289
O        -0.41645739344559    0.63573186407178   12.22099475592637
O        -0.49457184150088    5.93724357333535   13.73412293450253
F        -4.85054946585317    5.91469524374532   11.70295169806979
P         1.03054930375364    0.47329733322995    9.66668780838783
Pd        0.70690063056828    2.34145661123945   10.96182740311858

