101
CSD_code = NICPAT | q = 0 | S = 0 | Stoichiometry = C38H57FNO2PPd | MND = 4
C        10.83937680664465   10.52716794442455    8.15194636748997
H        10.95716022933339   11.15675253178494    9.04529263153665
C         9.88402162503336    9.35932315714230    8.48666720975882
H         9.64447241678040    9.36817077986352    9.55686373018642
C         8.63207292079644    9.72097957840468    7.66691770945937
H         7.92953212130296    8.89404462767595    7.56385593104166
C         8.00699591232122   10.98663601001741    8.27191370219945
H         7.92408945542388   10.91784781366361    9.35698877381428
H         7.00640520425947   11.14875101334824    7.87006447735369
C         8.97222528734221   12.10551148069532    7.82853883959128
H         8.48075974764370   12.80137971934301    7.14727458415043
H         9.35851782754886   12.67972751377958    8.67125525823023
C        10.07730942273336   11.32748928229977    7.09011482538729
H        10.70205403461032   11.96012429352458    6.45422294497809
C        10.42301478029571    7.96202066115873    8.14765142165519
H         9.91737436830083    7.20273395558805    8.74343725761215
H        11.50568305049415    7.91119102233806    8.34683862077631
H        10.25886845621316    7.72904164632592    7.09880451034156
C         9.23476935222062   10.26998116737865    6.37720621164026
H         8.48990138457494   10.70699177236955    5.71322000519414
H         9.82256123075188    9.54488541200256    5.82658446427767
C        13.76092666921584    9.63616320596191   11.07842816713077
C        14.51812663995540   10.05860273612942   12.33355040295615
H        15.58808157607364   10.15085677624969   12.12931345568404
H        14.15663833783579   11.02453970771040   12.69040875703513
C        14.29471768644982    9.01159137779693   13.43141336870520
H        14.84448927426379    9.31678726443734   14.32952519322761
C        12.80418158611167    8.91590257942374   13.75447983762059
H        12.64586575544655    8.19263210015168   14.55735557083805
H        12.43384236052815    9.88400429365704   14.10025949466347
C        12.04160651619062    8.48372833279373   12.50262290920145
H        10.97117258389019    8.42678986312781   12.72863091058744
C        12.53871711634527    7.11811701758253   12.03790713847522
H        12.37312705141164    6.37037302817498   12.81656310324141
H        11.98777168542304    6.80685842565189   11.14805559769630
C        14.02713024530540    7.21838636610727   11.71913994368840
H        14.39644390064922    6.24463389483018   11.37686414693552
C        14.26308295029902    8.25940825980692   10.62663092275070
H        15.33614348166392    8.30200932862496   10.43081712525466
H        13.74505045510818    7.97430146760686    9.69766599932898
C        12.26698738338438    9.50947594997250   11.39335972683312
H        11.85857240343703   10.46964021130022   11.70815775457219
H        11.74582346436581    9.19857551896456   10.48368505024693
C        14.79730504106591    7.64483422931950   12.96909152116769
H        14.65380121871448    6.91072162363118   13.76475982075490
H        15.86721801866528    7.69390944185509   12.75066542303993
C        13.82593344906435   12.58261429872890    9.97634325429588
C        13.65551103341617   13.23735551590050    8.59566453746287
H        14.53074925513735   13.03367963362615    7.97032713165017
H        12.77388579325159   12.80765751998818    8.09679867374610
C        13.48367489764112   14.74739814250067    8.74073037087873
H        13.37584262749654   15.19597350396574    7.74757228608599
C        14.71082103942623   15.33352362475056    9.43779361426143
H        14.60298801072735   16.41583857993541    9.53539952689486
H        15.60624853163475   15.14079385037254    8.84194885548141
C        14.85767531128190   14.70181162047278   10.82120917912867
H        15.73929085399530   15.11976498092299   11.32134517811337
C        13.61233627234853   15.00290121617124   11.65102898860591
H        13.48997340967631   16.08245354327698   11.76066883943538
H        13.71651614551575   14.57564347705782   12.65158127748855
C        12.39439732845737   14.40549800361446   10.95057808817354
H        11.49611753439812   14.59956881907880   11.54799080112217
C        12.58430563506103   12.89354678641660   10.81615954184365
H        11.70022020014523   12.45852534974781   10.34606027430009
H        12.68970229451664   12.46559837442918   11.81517905092801
C        15.04359414224485   13.18610198688115   10.68292736118191
H        15.16618650212052   12.74609068685330   11.67387075904347
H        15.96129632647951   13.00601006577733   10.12282266038371
C        12.23358685244779   15.03429532968939    9.56871348028475
H        11.35660803484527   14.61823236667388    9.06838578204175
H        12.08624183909904   16.11200118289467    9.66566665835210
C        15.72569947434782   10.61165559019451    9.10133065331537
H        15.98326022021470   11.56768883168388    8.64097368412779
H        16.34735552693063   10.47458115830795    9.98882972542652
C        16.04421857486875    9.53328598753410    8.06807266994086
H        17.05232345869254    9.71836363588687    7.65554249666155
H        16.05229365467328    8.52418590962113    8.50732685347630
C        15.40987965354804    8.73169238646078    5.95488526498404
H        16.34881021491464    9.03811911797468    5.47684709853300
H        14.58607550902656    8.81175209068034    5.24658336669437
H        15.50465897597825    7.69304933615466    6.29603959054669
C        12.30902691593558   10.29061532081811    4.84560034531617
C        12.98333593834076   11.51577170417863    5.00849587420570
H        13.49089579764821   11.69312712707841    5.96244954164245
C        13.02455989511422   12.46515618183716    4.00681482641639
H        13.54061838996456   13.40318021792726    4.14237297545818
C        12.39057362226079   12.19415465056915    2.81351834891596
C        11.71277671115260   11.00206377857178    2.59118444347757
H        11.23361150520446   10.85246707470815    1.63714406512722
C        11.66637390702710   10.06040317305096    3.59417863872685
C        10.32613560102623    8.56111006533992    2.31110788621049
H         9.53660104656532    9.29710856461492    2.12321729272056
H         9.87554620273293    7.57887854257713    2.45192930936918
H        11.00064521894479    8.52753756247960    1.44818885981092
N        12.30902494241126    9.37453588622698    5.82756289570349
H        11.75285256176902    8.55770142793028    5.59351692157486
O        15.09883874345972    9.59188127145273    7.02660874435422
O        11.01779746941040    8.83996814092897    3.49678652478611
F        12.42261934573757   13.11679363536373    1.80662725489745
P        13.91229349063411   10.73528337754136    9.54963309450236
Pd       12.80640507462255   10.04861540852828    7.67295376360163

