25
CSD_code = NICRUP | q = 0 | S = 0 | Stoichiometry = C9H10AuCl2NO2 | MND = 4
Au        8.79954142779039    6.41213749908580    6.40384920593598
Cl        6.83711226948556    5.44538779086013    6.01762006758079
Cl        8.84112529484488    7.81003534737110    4.51774302279036
O         9.44671817691257    2.87800450624036   11.32383678891925
O         7.38005445674778    3.84736535869957   11.00386046584341
N        10.72228301048975    7.27938610340797    6.70116956540707
H        10.94568541766265    7.48117117311896    5.72293773093945
H        10.62366287683833    8.18565253450208    7.15167102933085
C        11.75631907577318    6.46136323840166    7.35021774176083
H        11.82316691022407    6.74230355233422    8.40369324770096
H        12.72616931925993    6.63892608382199    6.87763103851427
C        11.39698706404694    4.97551928655454    7.26272659687133
H        11.12700252077163    4.73361021473233    6.23241109334914
H        12.26867010262627    4.38098136093843    7.53484090581393
C        10.25909748879787    4.66779432005077    8.20092212328615
C        10.50204959934180    3.84800187613716    9.31015193266243
H        11.46664930409444    3.39433167081661    9.46655478191906
C         9.46805990578611    3.62885260156111   10.18396763549051
C         8.13281007027735    2.98990543066396   11.83571362819707
H         8.16995356605776    3.40300215247393   12.85572514083969
H         7.66249176545207    1.99409008574344   11.86297701941852
C         8.21528436946677    4.21342095048795    9.98825267922238
C         7.96324944336785    5.02454841201824    8.90781817877857
H         6.98843194342553    5.45420539144162    8.75894292837522
C         9.01042462045374    5.24160305853578    8.01726545105319

