79
CSD_code = NICWED | q = 0 | S = 0 | Stoichiometry = C27H43B2FeNO3Si2 | MND = 7
Fe        8.08393909650954    2.31910415884628    6.36191004777488
C         8.48981416994055    4.02628725540095    6.60395611134546
O         8.94151013816389    5.05078129003322    6.84931218319913
C         7.44835019562078    2.12572223881768    7.97364779933683
O         7.05729345244768    2.01645696069394    9.04731796906637
C         9.59777674013228    1.50803617418517    6.78698086646200
O        10.63254447833366    1.14858152878282    7.12344685186765
B         6.80058742833153    3.24609690294166    4.39921129963137
C         6.01015273581847    2.12024178970710    5.11512600518791
C         6.52776954586303    0.82374630550482    5.22300217649306
B         7.93729179282215    0.47036156585911    4.69164622076790
C         8.84266169578841    1.66355671301228    4.26464026559023
C         8.31534580213242    2.96790697145603    4.14671635621674
C         4.57435002289846    2.35867153422396    5.50436244932693
H         3.91924078583331    1.74966477005446    4.87911456315068
H         4.31221467107588    3.40184460460531    5.35953701299487
H         4.38342418245791    2.08696062954790    6.54161560580306
C         5.62013706122936   -0.27441315301523    5.71884343349631
H         5.23088426428476   -0.06107383535119    6.71333192883574
H         6.14025725699935   -1.22671874422897    5.74316284542565
H         4.76603725685004   -0.37361283251568    5.04728797725466
C        10.25537941905737    1.40709191866760    3.80042590796738
H        10.30374186981728    1.52350237919149    2.71658316421228
H        10.56368544352322    0.39369639238182    4.04449450776568
H        10.96920154680299    2.10423097240490    4.23642155002126
C         9.18547224998619    4.05638379258265    3.56931905062803
H        10.10783697052448    4.19164289218439    4.13326454038880
H         8.64225205682625    4.99616600956470    3.55237061148970
H         9.46426248010180    3.80111458434014    2.54565478962455
N         6.14959819323735    4.47510788024629    3.93689930124919
Si        5.66750937163148    4.43747863090374    2.24995870238201
C         6.33800175904917    5.95850213657956    1.31389842820837
H         5.98341147939803    6.88440014734289    1.75330834547627
H         6.00883681753090    5.94135931830593    0.27993260358286
H         7.42294789644794    5.98904649039483    1.31097140727263
C         3.76829505820024    4.34865218845837    2.05445899903215
H         3.32431732149089    3.66481428088742    2.77054294765492
H         3.50680331879064    3.99719726241815    1.06103686993530
H         3.29791006999967    5.31570977639264    2.18762594065334
C         6.35492748480490    2.85401434848420    1.44161488131241
H         7.43723621220848    2.81595962192057    1.46989531655086
H         6.05177890885617    2.78816134386480    0.40147608897683
H         5.98313779922202    1.97081859719441    1.95032829541165
Si        5.86269093397056    5.85165085950499    4.97509447412117
C         4.24586468851985    6.74225094253285    4.49782675696843
H         4.29163845064930    7.15378807813570    3.49633350942598
H         4.06713944237847    7.56786623525223    5.17963205934438
H         3.38361110884619    6.08629833285689    4.54768797010636
C         7.27622577241665    7.13127695655266    4.81057856660402
H         8.19830973004998    6.78910064583526    5.26898351378604
H         7.00110179730503    8.06123813399346    5.29973684817955
H         7.49058972437550    7.36345938020372    3.77184681781066
C         5.67079901018959    5.36452013808079    6.81188561285336
H         4.62861523874922    5.36412200397251    7.11547205097224
H         6.19051875716691    6.07301174703781    7.44877786020196
H         6.07772335337322    4.37971500852448    7.02311313911000
C         8.41808895976358   -1.02545947456511    4.47290948001822
C         8.51137509010967   -1.48883997574596    3.15126600545930
C         8.98206743738428   -2.77106971215030    2.87186193077425
C         9.35893741838166   -3.59229282846782    3.92117840512186
H         9.73650234367891   -4.58347156888764    3.70873768051079
C         9.24964686776446   -3.17737532266252    5.23717845527888
C         8.76606041987367   -1.89627125806660    5.51518426020214
C         8.07646334159049   -0.62269533084460    2.00318134545893
H         8.90787624189264   -0.43893582803896    1.32263912815284
H         7.69292026685338    0.32936298973541    2.35399762930864
H         7.29237335348407   -1.12094708595093    1.43310801472555
C         9.08708540983246   -3.26775754834768    1.46058800320144
H         8.10754592655762   -3.28458582041886    0.98295535947852
H         9.49665091881003   -4.27483538916564    1.43968975531343
H         9.73274703520586   -2.62007200744460    0.86809438351176
C         9.65100068039411   -4.10939222528593    6.34193798681523
H        10.40965886962318   -3.65410023147746    6.97762718961525
H        10.05228468506914   -5.03383734338860    5.93346453112382
H         8.79612552611727   -4.35634469468716    6.97177909806349
C         8.63855732208282   -1.49813412770634    6.95824306715932
H         8.04895214251981   -2.23562135713216    7.50228173675103
H         8.16444735225110   -0.52673007371393    7.06770526982246
H         9.62037788172059   -1.45504604134970    7.43016988562647

