61
CSD_code = NICWUS | q = 0 | S = 0 | Stoichiometry = C23H32AuBr3N2 | MND = 4
Au       12.31699917903546    0.50633132427110   11.22429425568751
N        11.22696824567391    3.31107156247013   11.44189576586291
C         9.78092152965548    3.00864847306720   11.41322162598302
Br       12.31872704287292   -1.89398831360801   10.97030000993735
Br       12.31845492978473    0.40026743866016   13.68673151543388
N        13.40276334010832    3.31117414867306   11.44031677206070
C         9.20498305009769    3.61182369266928   10.12456505662226
H         9.43203312102354    4.67760097020791   10.06446137141108
H         9.66363639976728    3.12334467525836    9.26110778022353
C         7.68900513453031    3.41389182385416   10.09945927940950
H         7.29085022641541    3.86546751931799    9.18517194328113
Br       12.31281080127434    0.92796331512451    8.79024677361507
C         7.06359462299672    4.08946357097758   11.31981715536545
H         7.28028446447631    5.16038672124859   11.30722066349380
H         5.97945869455429    3.96960352613845   11.29137302041539
C         7.61827058934865    3.45719067731011   12.59638330283109
H         7.17190986343984    3.94273143212885   13.47033210706843
C         7.29460359786437    1.96641532628295   12.61542806009526
H         7.67838265295310    1.51130012220741   13.53071527399337
H         6.21398664031275    1.81710406588024   12.59378880285498
C         7.93450408074036    1.31041551929427   11.39600535447900
H         7.73549705205328    0.23428141588883   11.40920302866296
C         7.36920543033701    1.92177697120826   10.11719230109231
H         6.28939287820835    1.76979994596526   10.07898563378162
H         7.80726951293223    1.43570948062582    9.24309657724350
C         9.13425059936477    3.65366479318701   12.64768578701048
H         9.35137903139474    4.72160697271959   12.68929634381412
H         9.54356710240879    3.19231078727447   13.54990890594619
C         9.45145898001534    1.51777340197589   11.43809967640190
H         9.87882776883418    1.01744489911000   10.56695063874591
H         9.83456401879545    1.06142939317285   12.35171178046233
C        12.31491839640628    2.52208290363802   11.41154430990361
C        11.64088023094288    4.61563567244837   11.48106450636606
H        10.96929285853594    5.44612213831774   11.50191393986713
C        12.98874841806531    4.61571556710157   11.48025457261301
H        13.66036763283255    5.44617787726006   11.50074018849327
C        14.84895338228911    3.00936074420729   11.40986353856313
C        15.18016652162251    1.51871813658741   11.42908710361771
H        14.75303119601820    1.02099086440231   10.55637085312068
H        14.79848614455341    1.05834980661341   12.34126440461927
C        16.69747005030589    1.31348628328057   11.38542913334527
H        16.89776112253150    0.23755594214286   11.39482683510871
C        17.33752896074031    1.96608899020912   12.60663230203146
H        18.41837981035953    1.81869337887947   12.58306207620197
H        16.95569423313450    1.50708601306344   13.52078633403938
C        17.01160748489323    3.45644594173838   12.59334947633473
H        17.45787691759596    3.93946296464513   13.46875643851579
C        17.56416614500834    4.09434600390325   11.31867165012281
H        18.64855869313585    3.97723240358549   11.28929742501782
H        17.34484578316577    5.16475836658929   11.30989150518753
C        16.93958173888127    3.42173031163537   10.09621995424073
H        17.33666510776035    3.87708512887477    9.18333732007673
C        17.26158315176311    1.93004841172020   10.10860774954871
H        18.34160817135221    1.77976955025594   10.06971503729898
H        16.82407259427742    1.44648529297152    9.23286454377867
C        15.49541125879664    3.65019841082842   12.64658944096087
H        15.08750143965569    3.18402135112356   13.54699670473331
H        15.27610452090858    4.71749202506945   12.69318860667057
C        15.42338361747703    3.61721652027006   10.12268377494679
H        14.96495265085753    3.13035271282823    9.25818816843075
H        15.19484118486309    4.68278463324700   10.06543554295841

