72
CSD_code = NICZOO | q = 0 | S = 0 | Stoichiometry = C24H38B2ClO4P2Rh | MND = 5
Rh       -7.70200078456552   10.16169486927503   13.87006647475328
Cl       -8.60100239977934    8.86315873292473   15.47607531133440
B        -6.25124813965885   10.85751992166048   12.54127250088105
O        -5.11771535827686   11.58767748754837   12.91806683525283
O        -5.86319862848744    9.88342069764917   11.60837779159644
C        -4.06214362041053   11.03377079032911   12.27802433661879
C        -4.52151343643472    9.98046483118853   11.47442248710327
C        -3.65221738800933    9.22452078727571   10.71345654973124
H        -4.00681515558772    8.41123474326299   10.10119889220773
C        -2.30682265709825    9.55771483023769   10.77766882435110
H        -1.59687881367509    8.98863945699583   10.19698562430213
C        -1.85284774500495   10.60227728105077   11.57089693629146
H        -0.79767487367612   10.82851130574227   11.59379226708093
C        -2.72283581646002   11.36284768487809   12.33922443148267
H        -2.37291620861368   12.17302252511782   12.95878704478719
B        -7.83644601097928   11.69216789263188   12.46374524915620
O        -8.49290386013358   11.68587420737414   11.22728741023800
O        -8.17364566651607   12.87392723310873   13.14111650462125
C        -9.25135430569261   12.80654701484212   11.18025047900126
C        -9.05729616874402   13.53620421831333   12.36176837190864
C        -9.71726294164612   14.72735830125676   12.58867249076153
H        -9.56741805545049   15.28479852650614   13.49899481611907
C       -10.57975927503541   15.16769956341740   11.59487513078694
H       -11.11476821001816   16.09438906152450   11.73658036111997
C       -10.77182343432244   14.44538715885599   10.42547232884057
H       -11.45316656542506   14.82160952608676    9.67761477681294
C       -10.10997928927114   13.24779725828542   10.19358480053035
H       -10.25868455283310   12.68350829773989    9.28683802012522
P        -8.72707976300293    8.63167251422385   12.49578566398451
C        -8.69933667110320    8.73217654223118   10.64155724818550
H        -9.34360208953619    9.57424888657015   10.38196422906601
H        -7.68594458304851    9.01057089328644   10.35204739175265
C        -9.14222484172852    7.48997479508741    9.87859641401454
H        -8.42530752244834    6.68035664006359    9.98707517476767
H        -9.22204680829069    7.72409126213840    8.81783279533509
H       -10.11497284841459    7.13698366664192   10.21563504161607
C       -10.54381444528306    8.55407382619907   12.83162176194217
H       -11.05141143629156    7.98771839101614   12.04728024629049
H       -10.67445581637657    8.03257258558612   13.78170805983853
C       -11.11360753393413    9.96376672284996   12.94038470767741
H       -10.56408167121218   10.51842480534302   13.70702031535921
H       -12.16547023415940    9.93909175965867   13.22008116431907
H       -11.02101215273998   10.49949791773745   11.99679819520637
C        -8.21464800773909    6.88985389705073   12.82651813493212
H        -8.42977294287096    6.69867296963917   13.87993963116667
H        -8.81027316113047    6.20295053784079   12.22164813056938
C        -6.72393149476351    6.71617384684653   12.56633960300290
H        -6.48280598647304    6.90694959580892   11.52280004433021
H        -6.39915175975859    5.70887364652817   12.82182281532224
H        -6.16356079300238    7.42642357700207   13.17520896955378
P        -6.85365609259067   11.36790671511926   15.65616568508574
C        -5.94045569963532   10.20216997683817   16.77060212954527
H        -5.37905617494408   10.75520849936730   17.52749987388743
H        -6.68140809964120    9.57108874263392   17.26461426462170
C        -5.00463971483290    9.33046521293891   15.94052510017677
H        -4.24592322048550    9.93141006353521   15.44119150477917
H        -5.58637718223822    8.80577977084763   15.17707022269011
H        -4.50537357031724    8.59021087852955   16.56323714861590
C        -8.21643756218400   12.00715344870450   16.73324964418099
H        -8.78112632537797   12.72044821411581   16.12547621161502
H        -8.86653018391652   11.14689706825322   16.91348317326272
C        -7.81771968971590   12.64092590393063   18.05972331600170
H        -7.25714899767533   13.56085901041275   17.91284567786037
H        -7.21854739610272   11.95565269735054   18.65426331636318
H        -8.71344131380646   12.88373310586417   18.62943867245288
C        -5.62209861349168   12.75707434508113   15.69588634015613
H        -5.40278328450472   12.95619878599554   16.74907978923709
H        -4.70938337365872   12.38294163931769   15.22920535876663
C        -6.05644279688620   14.03721306862888   15.00193752391884
H        -7.00648542466424   14.39154210808915   15.39495811247495
H        -6.17050174239056   13.86406934775075   13.93660873693273
H        -5.30971161612005   14.81698791220367   15.15035541119126

