72
CSD_code = NICZUU | q = 0 | S = 0 | Stoichiometry = C24H38B2ClIrO4P2 | MND = 5
Ir       -0.35395592090746    0.29524081636059    4.28919974685139
Cl       -1.28563726073470    1.59229860840545    5.93541185379148
B         1.08620214498470   -0.36014442961220    2.93469667262630
O         2.24805138413416   -1.00746261211075    3.38899667086010
O         1.44703616516581    0.49678849498230    1.87873110517944
C         3.28233649663474   -0.51266771363708    2.67427694947387
C         2.78934631912864    0.41550678754913    1.74551568895284
C         3.63258214120770    1.08606956075205    0.88232103408870
H         3.25169402034558    1.80120598920636    0.17128071222403
C         4.98759573596257    0.79888212740832    0.97464041465210
H         5.67764040570305    1.30435402400590    0.31618960698091
C         5.47497499493423   -0.12030338825765    1.89243944491793
H         6.53595846994813   -0.31523709567729    1.93308778274658
C         4.63060529087678   -0.79605832221162    2.76277250291952
H         5.00694841904213   -1.51017508176460    3.47758868424293
B        -0.49353024829556   -1.24396423422969    2.90828356848181
O        -0.67648729001127   -2.51300431530393    3.48414209654093
O        -1.28591669111472   -1.16718009971727    1.75039086836957
C        -1.59710085744599   -3.15771106972285    2.73385548344932
C        -1.97112209614793   -2.32972197491315    1.66547114197743
C        -2.90785816307058   -2.73435608895685    0.73590924941495
H        -3.19540557461498   -2.09608007892868   -0.08417336100067
C        -3.46203321576222   -3.99570683617267    0.90708139195923
H        -4.19987825476180   -4.34504214351270    0.20086230781024
C        -3.09137785193167   -4.81472165195558    1.96357670908482
H        -3.54659127321703   -5.78851622852547    2.06211116622392
C        -2.14915226207559   -4.41192798075028    2.90010449981049
H        -1.85989198658010   -5.04534566783701    3.72289940966970
P        -1.37870322582406    1.86732297078112    2.90822770017851
C        -3.18858317314448    2.05195502809715    3.24187595290473
H        -3.28931498277441    2.52735432577006    4.21879253704775
H        -3.64304907292113    2.70187015607311    2.49052505029750
C        -3.87232860933813    0.69079769269577    3.26361941209242
H        -4.93355475761174    0.79375551006235    3.48323586310742
H        -3.41882840482053    0.06748848720055    4.03330714081108
H        -3.76563228979180    0.18212209540299    2.30775044181459
C        -0.78721140757512    3.58406571547470    3.24766136959997
H        -1.36375463003822    4.30233415126952    2.66080119345461
H        -0.98032022328967    3.77365935124656    4.30531674862665
C         0.70456353791897    3.70964486517999    2.96689588123917
H         1.05992260749185    4.71131503275044    3.20297570540962
H         0.92660601892555    3.49838991951633    1.92338300193272
H         1.25505048126660    2.99480233526145    3.57606193565501
C        -1.35740173825723    1.77801372254953    1.05359094339005
H        -0.35492099800218    1.46487387284094    0.76453753281947
H        -2.02980078734082    0.96070001197227    0.78904743812204
C        -1.75273416020918    3.03825662288802    0.29352540771643
H        -1.82260136805859    2.81400056259143   -0.77001568120225
H        -1.01494422618313    3.82658657144679    0.41889287517494
H        -2.72051759537976    3.41715744144206    0.61688930776994
P         0.52747818324020   -0.91706718844550    6.09924544053545
C         1.32909440882153    0.23899432100915    7.30723780621034
H         0.53766172680228    0.81551462896213    7.78840377499346
H         1.86979551329037   -0.32736906464705    8.06949781146886
C         2.27507501867131    1.18813037444191    6.58144801889016
H         2.75355982383539    1.86903824073391    7.28306340009379
H         1.71192329168542    1.77724329361536    5.85865992669721
H         3.04937683743746    0.64001603297842    6.04780343654614
C        -0.84015490216360   -1.66470903736451    7.09809191660240
H        -1.55057924107376   -0.85151646808965    7.26594341513584
H        -1.32999034752078   -2.39551921967107    6.44908323166692
C        -0.46894850122568   -2.30704402273959    8.42882323233468
H        -1.37251758394851   -2.64177898745188    8.93613029527924
H         0.03504903417912   -1.59539119061119    9.07810948450383
H         0.17488794571035   -3.17210079025932    8.29010721157215
C         1.82911802152476   -2.24146430928092    6.13901997268648
H         2.72799170793620   -1.80683154255571    5.69930074384408
H         2.04183266816877   -2.45861230739988    7.19005493373254
C         1.47745302714033   -3.52299729714260    5.40265991636441
H         0.55553776089004   -3.95364759571923    5.78602205002161
H         2.27508754426881   -4.25569548691510    5.52210660901267
H         1.34549402553208   -3.32097822068875    4.34502621161943

