45
CSD_code = NIDBOR | q = 0 | S = 0 | Stoichiometry = C4H22B18Ni | MND = 10
B         0.38512755300431    4.14647244111297    4.06593774353894
B         3.01833393666577   -2.95554547623741    2.01796573586406
B        -0.50320214832313    3.09263917253169    2.95304816702472
B         3.96845784520269   -1.84679274041082    3.02096629673177
B        -0.28069201014382    2.60215597893042    4.64710052152177
B         2.43877763310037   -2.50817992212808    3.63967893320983
B         2.47567371862006    2.18758439560592    4.10110951714159
B         1.05078131212576   -0.88842912222665    1.76426635735476
B         2.10306728724910    3.88930959602979    3.71297373705625
B         2.16272341302962   -1.93880035876753    0.84481040712843
B         0.95273501071404    3.89104392013599    2.40109864491235
B         3.79086041592656   -1.51921521843315    1.31133014345101
B        -0.12465452969043    1.39676567780804    3.36816580322539
B         2.83563672707648   -0.81555872643455    3.93997094815575
B         1.00952877742454    1.39111993647932    4.77281971457108
B         1.14873107942807   -1.29702407000737    3.51311921900503
B         1.37832126767103    3.10310642566144    5.11761905593043
B         1.29673959777588   -2.55415415337186    2.25458985227159
C         2.10881543283820    2.63670784862635    2.55632435742056
C         2.54342484619103   -0.34544270264598    1.31714780473190
C         0.68735893377043    2.20869089401153    2.14463096291066
C         3.52864192849560   -0.30146513248829    2.50067273985691
H         2.86606439043413    2.64825672302152    1.77274464645942
H        -0.03563973955277    5.18534520555845    4.42125577882472
H         2.66398890929028    0.41630628967475    0.54736217301740
H         3.38459724895244   -4.04255199386397    1.75947596022672
H        -1.52642441415298    3.29684848627467    2.41150274402960
H         5.03844500417198   -2.00954854273569    3.47981018057384
H        -1.17619471827304    2.57874707325139    5.40885687954164
H         2.41164451484631   -3.29777262243716    4.51064466780629
H         0.52975494228782    1.95707145464279    1.09814262191244
H         4.28625156133633    0.47880453806120    2.48551049076536
H         3.60440949106700    1.99689476035043    4.38906663479579
H         0.10598195285043   -0.53549604308028    1.15076417636886
H         2.99019475749684    4.66238667307066    3.71177824777231
H         1.91587983227455   -2.14815953971013   -0.28645851487271
H         1.01440467139879    4.58816849631560    1.45600634320272
H         4.68630151462567   -1.37303027197663    0.56321307149929
H        -1.01621317129415    0.67319284167578    3.11420453106656
H         3.28705008949453   -0.47966966815189    4.97280100451709
H         0.96641373566825    0.67709383372920    5.70525153436143
H         0.24527312481463   -1.41676529340219    4.25514366278416
H         1.65305553139326    3.41501476533671    6.21815066524752
H         0.45253271392579   -3.36822792738265    2.16208704934932
Ni        1.68374002878640    0.57960209798654    3.07343878773539

