70
CSD_code = NIDCIM | q = 0 | S = 0 | Stoichiometry = C35H31ClP2Ru | MND = 8
Ru        4.33069757640049    3.78751711827764    1.25237374279130
Cl        3.81021545761768    3.98695950154123    3.57455388530370
P         2.68441175247708    5.23762999067122    0.70060111316043
P         2.98153729413169    2.00727216042638    1.44875843951708
H         2.09295223220870    1.89237627156349    2.51884956385214
C         6.47767292527160    4.39312243966543    1.59850588941388
H         6.88427748204244    4.89659620024069    2.46636455538837
C         6.41298894341707    2.98369413129407    1.42152371378025
H         6.81640024553669    2.24151236234880    2.09742144055476
C         5.95472960258924    2.73822241175148    0.10121459178081
H         5.91306048177496    1.76674757241687   -0.37524899126100
C         5.68717955284087    3.98168455349498   -0.51715672167074
H         5.45460345697413    4.14079653359028   -1.56212507328806
C         6.02718360542407    5.01143217683640    0.41628804328313
H         6.06759225658660    6.06946377212177    0.18841743755082
C         2.85365665498568    5.91606725230688   -0.97948662989034
C         2.72460513333494    5.03172692330884   -2.04853483348169
H         2.47979003726740    3.99807097037436   -1.84281253539836
C         2.90790949951138    5.47077828961740   -3.34548535695187
H         2.79576621768876    4.78172329910268   -4.17056117052460
C         3.24280685283949    6.79457104154279   -3.58690342417291
H         3.39228993060223    7.13818346735789   -4.59998942043052
C         3.39279407464214    7.67281635109814   -2.52726156106006
H         3.66296007172430    8.70219759149911   -2.71374856234581
C         3.20033929164333    7.23905542258588   -1.22635807751311
H         3.31885150940673    7.92851879522657   -0.40206976737221
C         2.52328747803845    6.75351713053032    1.69945672623533
C         3.58609726547149    7.15363605955568    2.49935266713466
H         4.47409365328022    6.53608568539871    2.54830921245835
C         3.49573852270930    8.31629494950306    3.24366929521951
H         4.32079027454806    8.62126220982641    3.87061107746621
C         2.34432148844256    9.08343682071746    3.18970867977740
H         2.27051866383455    9.98926450350096    3.77379789111619
C         1.28203148745844    8.68850240034990    2.39084461435317
H         0.38366443622561    9.28761338318876    2.35172238799105
C         1.36719612136593    7.52773799145287    1.64573192808537
H         0.54138941899285    7.21417236667679    1.02135549595999
C         0.96720469741676    4.62847891176755    0.77022952737345
C         0.57892243976211    4.16580166128019    2.02816030686714
H         1.28827031064904    4.22342808554906    2.84770195260854
C        -0.69527496390350    3.66810514889178    2.22219777686929
H        -0.99603299259723    3.32137715168739    3.20027459478519
C        -1.58610374348277    3.61413553381321    1.16084766430053
H        -2.58068275889125    3.21898025326648    1.30840933665024
C        -1.20304531339899    4.07239425677099   -0.08746236130204
H        -1.89881890184289    4.03601036355769   -0.91336702889245
C         0.06731029379549    4.58665798976172   -0.28664534180711
H         0.34819622663793    4.96034878509382   -1.26063659022761
C         1.86312721758498    1.48105170238757    0.12257422723319
C         0.57382344417921    1.03497802284950    0.38224886633858
H         0.22719042628384    0.97314453794350    1.40433493100680
C        -0.25780913787610    0.68394791876714   -0.66565297806487
H        -1.26347907618106    0.34552642122709   -0.46392899596557
C         0.19385122271730    0.76770014659194   -1.97245637113042
H        -0.46077703701195    0.49737449344387   -2.78795601888512
C         1.48493614526769    1.19704795234939   -2.23610528742012
H         1.83825065263363    1.25576394841146   -3.25588163753987
C         2.31491208819138    1.55623038546070   -1.19082647392087
H         3.32627247442717    1.90122088909103   -1.37485976948187
C         3.94648926319661    0.51282208875210    1.81711517884784
C         4.24075458478768   -0.46468839991647    0.87498954145914
H         3.82361072626514   -0.39762034628033   -0.12079370649885
C         5.06024486370236   -1.52589024049072    1.21928230656673
H         5.28777198165670   -2.28748299083460    0.48707494088520
C         5.58955941642490   -1.61280702256832    2.49578072643503
H         6.23143475624335   -2.44122811813471    2.75771975012268
C         5.29745637965856   -0.63755083661156    3.43782071306318
H         5.71069361686713   -0.70714171631479    4.43350735740914
C         4.48094378841963    0.42456581479294    3.10144132431629
H         4.25329595911206    1.20475710648152    3.81777127125522

