94
CSD_code = NIDMUK | q = 0 | S = 0 | Stoichiometry = C41H50FeN2 | MND = 3
C         4.51103921358407    6.94213756024601    4.24064934547678
C         5.13895593668521    9.11669857665522    4.10589625800080
H         5.79646744530860    9.95812136586856    4.19481478415653
C         3.86092964516931    9.03687039950606    3.68508738339350
H         3.18564335765113    9.79980217130512    3.35814006631213
C         6.80526762238685    7.50989329011119    4.95169962985356
C         7.76372851944983    6.94814867851639    4.10070244677657
C         9.01269103546217    6.65154594871774    4.62966475331940
H         9.77673808252493    6.22469796534721    4.00025975321646
C         9.28995370675126    6.89021551926090    5.96280436277668
H        10.25967853119317    6.63457838403288    6.36307997328853
C         8.33912845418717    7.46683251340026    6.78395829811579
H         8.58177732868640    7.65636625113053    7.81697359808090
C         7.08714175817405    7.80770025529962    6.29122454350103
C         7.44788123829748    6.75362055808648    2.63515141051541
H         6.37811801218110    6.54243760869966    2.54766617157830
C         8.19881175188828    5.58972981036543    1.99187813268041
H         9.26187107523355    5.80087986598890    1.90184439601339
H         7.80807788986006    5.41725730533480    0.99134133854406
H         8.06572881429162    4.67974295460764    2.56991442105425
C         7.75675439442239    8.05395045472094    1.88328549681158
H         7.16600182526366    8.88027812080811    2.27171223632788
H         7.52999223281292    7.93744422295064    0.82590012864248
H         8.81026553133897    8.30773279486505    1.98493053812295
C         6.04612392385992    8.47748923414120    7.16289987924464
H         5.42051286898247    9.10966487100173    6.52420929880204
C         6.65859716591591    9.38111784136886    8.23360587348455
H         7.13512463911812    8.79894924525652    9.01808346056897
H         5.87709850105917    9.98176153875304    8.69424942427725
H         7.39615269690522   10.05183887068929    7.79810317391665
C         5.13812190520327    7.42741023326259    7.80886583384655
H         4.68558799391312    6.79298156287664    7.04451641934031
H         4.34938828958955    7.91484315492852    8.37825834119994
H         5.71131743602033    6.79598056602952    8.48372465089301
C         2.17569408583331    7.29530385889746    3.43130220408981
C         1.32620333878691    6.83344385019239    4.44240255447999
C         0.03206832667479    6.46496584513087    4.10334053663020
H        -0.63090311509178    6.08421193519884    4.86368821129361
C        -0.42564710497722    6.59147667285458    2.80675802451317
H        -1.43948273700598    6.31302408367973    2.56033897191107
C         0.41427302238294    7.07627421845533    1.82318002898313
H         0.04495237917884    7.17522212410266    0.81404488367951
C         1.72801966835997    7.42305597788024    2.11049546139785
C         1.78468244796280    6.75396049393298    5.87780178835472
H         2.72164527803435    7.30830017378222    5.97475263300684
C         0.77276261975152    7.38884891422093    6.83495296666998
H         0.50897061354287    8.39168755145967    6.50559669601528
H         1.20295819124255    7.45501443426417    7.83177492034826
H        -0.13620701423922    6.79772215541396    6.90160600424401
C         2.05465423129178    5.29868471121313    6.26409885361320
H         1.15857734035183    4.69654453504940    6.13970762951623
H         2.37622286903715    5.23864751862927    7.30063994329648
H         2.83560455348069    4.87179362828159    5.62020952739146
C         2.62650786207689    7.91309043538850    0.99627403390910
H         3.64474985713711    8.02566623119591    1.38036104183963
C         2.15147895136295    9.27572744491450    0.48314403240352
H         1.15353278402786    9.19847949795268    0.05849326484426
H         2.82577920112649    9.64118681557783   -0.28829469259878
H         2.12007227333108   10.00833022441836    1.28655372959908
C         2.67679736088806    6.90898796047774   -0.15885554112315
H         1.71477241289386    6.83419549904217   -0.65883423227025
H         2.95113928761622    5.92024789242089    0.20119708826603
H         3.41583264185307    7.22590052410099   -0.89184774573886
C         5.58218064097802    4.22543802128015    6.43856683918551
H         6.22034410722134    5.08093712598666    6.69499287662767
H         4.94643664688394    3.94453357324740    7.28108737766942
C         6.37879353999984    3.12222217351852    5.94211965933023
C         6.08869250339903    1.78173623571028    6.23805625696694
H         5.26987331085757    1.55919786003857    6.90889919434573
C         6.82596031565130    0.75596504353074    5.68540106913471
H         6.58732529343954   -0.27005679048304    5.93054780638824
C         7.87415803239513    1.02944971119659    4.81842269951737
H         8.44979214243111    0.22300618377770    4.38809617133833
C         8.18129434096805    2.34757977244150    4.51651468422350
H         9.00409833379491    2.56678806900382    3.84842495192560
C         7.45090569622570    3.37745360351200    5.07228313675898
H         7.70011070840137    4.40962996970538    4.85897025861409
C         4.38764038781523    4.72483820513939    2.83661696457984
H         4.10724139528303    5.38650772193749    2.02426888224616
H         5.36913935737702    4.26764092985377    2.65435626677214
C         3.36716656799892    3.76977978525406    3.19525209505381
C         3.71174696959430    2.65087355207248    3.97971588725117
H         4.75676083657639    2.41391469108365    4.12755713256235
C         2.74054344957696    1.79697444361942    4.46902516666896
H         3.03214142879897    0.94384366831071    5.06563719352398
C         1.40394331962035    2.01708533341369    4.18301955449422
H         0.64584470879739    1.34831655568127    4.56438129432614
C         1.04911928596386    3.08515230798477    3.36831834283912
H         0.01089431732027    3.24120652534139    3.10844573464168
C         2.00815399892760    3.94316651746118    2.87971741446651
H         1.71913117572293    4.75715625951403    2.23352182566643
N         5.52798000249146    7.84041024595020    4.43295977157392
N         3.48598348650973    7.71331535108248    3.76447500344333
Fe        4.78452324884628    5.14052245158253    4.80666984724225

