73
CSD_code = NIDNOF | q = 0 | S = 0 | Stoichiometry = C30H39Cl2PRu | MND = 9
Ru       -0.83726206190027    2.18086027068045    7.31889497157525
C        -0.15725912489383    1.35484037138226    5.45615215838112
C        -1.04417815269097    0.37100123405775    5.99968936401422
C        -2.36223584343482    0.76915092812914    6.29611510270925
H        -3.04577971361860    0.03721954336598    6.71542484338980
C        -2.81843619208098    2.08426126618623    6.08074210854997
C        -1.96013119518552    2.98230256823267    5.40116154387936
H        -2.34007557204057    3.96034344990711    5.12362883953257
C        -0.65914617820791    2.62718506033144    5.02427162119263
C        -0.63215002054184   -1.06241158361643    6.17427297783682
H        -1.12089025039098   -1.49330284302886    7.04553092763996
H         0.44417871235184   -1.15161825973106    6.30115769808813
H        -0.92896529872118   -1.63933983473431    5.29526471872655
C        -4.22213407578325    2.48392730953965    6.42784887541751
H        -4.26108133592899    3.53563146693274    6.70529463302580
H        -4.59426041299486    1.89267058465300    7.26211331688258
H        -4.88082487046931    2.32795559453561    5.57098897160467
C         0.13583735267927    3.51060194947230    4.10711737268326
H        -0.12073860463826    3.26685960401878    3.07297424496827
H         1.20494810760570    3.36413737338883    4.23710610682730
H        -0.09917776732641    4.55934922836617    4.27381734286551
C         1.28635558343677    1.06867850496471    5.37748078613668
C         2.02122532586508    0.42640106447991    4.23947916408946
H         1.61535736702831   -0.55877157994031    3.99647755931189
H         1.96843656731889    1.02895671287949    3.32903596385958
C         3.41559280471509    0.33937199542319    4.78256372589350
C         4.54589807083544   -0.18297767514316    4.19173766348116
H         4.50767080912530   -0.58996545752472    3.19172417167995
C         5.73290371677969   -0.18295750126457    4.91018525071126
H         6.62873478015736   -0.58835145275421    4.46442504858668
C         5.77394736252081    0.32242380107098    6.20029534223825
H         6.70293679100763    0.30095049356607    6.75052149647787
C         4.64227064305936    0.85227748980818    6.79844147312666
H         4.69362787238645    1.22821211284501    7.80703581016225
C         3.45580145061529    0.87605664409309    6.08207093653008
C         2.11260256856823    1.34431701970990    6.41790839872334
C         2.17595268708122    3.80203817060864    8.08397253775685
H         1.60660384921230    4.24618598913975    8.91339661753380
C         1.90557292549948    4.63851323072888    6.83514194137420
H         2.45286495113234    4.21316310861113    5.98863464480467
H         0.83395036424546    4.61660085140278    6.62157515324564
C         2.35055358068370    6.07967271988524    7.05951058995564
H         2.16583102537970    6.66899322751763    6.15887669766472
H         1.75777015379309    6.50838590257893    7.86887820764150
C         3.83151494588391    6.13086455957110    7.42110861952956
H         4.42438800258664    5.75998332917236    6.58077153169871
H         4.13379077797810    7.16202963577719    7.61350138094318
C         4.10657340066057    5.27133742182714    8.65054522003972
H         3.55983437350077    5.67613469300472    9.50455357181060
H         5.17201805294386    5.29407420531402    8.89093204978519
C         3.66675381147113    3.82762432708588    8.40810515299181
H         3.88652353883138    3.23292719026015    9.29606263582593
H         4.23055242142716    3.42312838726008    7.56489636780031
C         1.99719361826437    1.13940125810015    9.31196387703165
H         3.09327509256276    1.13320701204170    9.29307095876371
C         1.48287433694945   -0.29105101210611    9.15336304685792
H         1.90929977419169   -0.73503575238187    8.24841801198149
H         0.39487727169252   -0.25529011245739    9.05212585734882
C         1.84446148429902   -1.13739031302342   10.36901730618259
H         1.44501053057771   -2.14567652528998   10.24396865662665
H         2.93227925917291   -1.21566805939780   10.45368853573989
C         1.27676089440102   -0.50088555883305   11.63246290781792
H         0.19214398740397   -0.43100907621526   11.54051310727265
H         1.51141838587758   -1.11766743039052   12.50245073058619
C         1.85077019674387    0.89971484263216   11.81101737210468
H         2.93837514061542    0.83771290743378   11.91509937265106
H         1.45222986155376    1.35403800499582   12.71935617245606
C         1.49791409791253    1.77346539945125   10.61121338549113
H         1.93505971056095    2.76647549279178   10.73814093132500
H         0.41267407685656    1.88677619589043   10.54769960145342
Cl       -1.66288822828010    1.23072237377635    9.29449823734298
Cl       -1.14189310217183    4.24839395081960    8.39081621833121
P         1.37501553329591    2.13946199812491    7.88920226143723

