123
CSD_code = NIDSUQ | q = 0 | S = 0 | Stoichiometry = C56H48N8NiO4P2S4 | MND = 6
C        10.80490285285160   10.52516062874917    8.02808336500586
H        10.49605564493035   10.39483066807441    6.98789302243830
H        11.74111754625224   11.08006547287924    8.07403813109286
H        10.02344248426943   11.06809414400713    8.56940089953086
C        10.72888016400859    7.00441541444734    9.81234664573770
C        10.74719524742630    6.96046399494458   11.19865285943839
H        10.21753808641547    7.72129510063663   11.75550477552555
C        11.45210929796095    5.97060390953570   11.84667682751240
H        11.48047478440165    5.91614201123126   12.92385782998679
C        12.16148927986641    5.01586592548369   11.11430357328051
C        12.16087932247584    5.07951653515343    9.72365665034785
H        12.71375712651755    4.36614055098638    9.13237945548278
C        11.43783943981881    6.06731592667615    9.08180868849721
H        11.42571916838865    6.11804310935615    8.00229737357028
C        13.60710826331298    3.12511924643880   11.17966150202566
H        13.01112348858957    2.50682084033422   10.50102279689912
H        14.03446224445135    2.49702531945215   11.95983896066117
H        14.41543027560594    3.60441014058256   10.61847231514808
C         8.81521350003080    4.90251959476951    3.91102402402984
C         9.62510831682594    3.76469812614493    4.18211655521084
C         9.23429887294634    4.11058114502399    6.39239390617522
C         8.67876230847506    5.48013761502217    2.57295246523145
C         9.80594251496374    5.68213313329142    1.77838436051603
H        10.78366259998758    5.42236536068023    2.15702122490307
C         9.67364354626267    6.23257201661706    0.51822314009180
H        10.55096751295110    6.39187377797306   -0.09085832184841
C         8.42160639582946    6.57871074538361    0.03500667232297
H         8.32297985791560    7.00236228001508   -0.95338528099287
C         7.29894500471269    6.37920207425616    0.82106498386704
H         6.32097402485976    6.64433086473707    0.44739025748486
C         7.42481791653767    5.83748491675878    2.08659877570889
H         6.55316293664747    5.65390711811860    2.69449743434551
C        10.18812863687008    2.90767197761681    3.14417674755255
C        11.47084655289338    2.38531419817643    3.29821887961866
H        12.03602918988549    2.63672238004879    4.18294534696064
C        12.01064246434333    1.57491584353128    2.31830979190695
H        13.01022314702510    1.18242673262328    2.43431942839202
C        11.26910709345276    1.26131053787668    1.19048386513984
H        11.69169201133023    0.62610905610738    0.42610038243207
C         9.98047978245675    1.75195444701354    1.04974135130247
H         9.39418471670165    1.48905028112518    0.18212089918940
C         9.43864002663420    2.57584082003623    2.01691477666074
H         8.42432050219096    2.93156692309878    1.92758345935225
C         8.84000699494288    4.13997101802191    9.95693741104522
H         8.28049777922013    4.75871230857464   10.64199174699015
C         9.54545905524750    3.03024012774783   10.40121492018449
H         9.55862118492908    2.78566913132888   11.45173696304655
C        10.21691962515248    2.24704146132926    9.47513910083796
H        10.76335118833379    1.36785096203079    9.78617590169688
C        10.15235983646014    2.59831818485830    8.13928379020554
H        10.62519378531018    2.01854485601220    7.36298845134723
C         9.42361130412746    3.73168818198214    7.78925877013592
N         8.32746773770444    5.06859803395787    6.12654858688430
N         8.18141874585003    5.48392100701903    4.91076208346357
N         9.87943868607162    3.45778888267959    5.44187983557013
N         8.78659656510410    4.49747146286358    8.68520980492454
O        11.04669894118472    9.27033649313473    8.63540153576511
O        12.81157731507765    4.07348705816808   11.84901690287474
P         9.78131688599774    8.30448314741882    8.95937406245600
S         9.21486274765564    7.62778663766986    7.12765148753873
S         8.48501246815462    9.25452409035052   10.09438057221752
Ni        7.50757654792859    5.98614157889546    7.41577333530118
C         4.21072258963460    1.44731741238112    6.80349079474417
H         4.51950276855758    1.57758969315909    7.84371651142302
H         3.27449783205014    0.89242259104094    6.75751408259453
H         4.99216026517615    0.90430720937716    6.26220089319029
C         4.28656933129510    4.96803413540781    5.01883423538115
C         4.26845224750139    5.01192189305902    3.63252378737069
H         4.79831930750508    4.25118089145700    3.07578842762885
C         3.56359330479445    6.00175492135378    2.98441544131843
H         3.53539658070940    6.05619889544407    1.90724034758045
C         2.85409554616123    6.95647042886852    3.71670113595112
C         2.85452722548370    6.89286565572923    5.10735655708465
H         2.30155109145483    7.60620250483645    5.69857054141920
C         3.57752922437193    5.90510614251220    5.74931337764966
H         3.58959695262630    5.85443065521207    6.82880829648294
C         1.40837943113743    8.84707408036709    3.65117388677836
H         2.00427647233830    9.46541817690249    4.32984844767458
H         0.98105756217008    9.47510096027904    2.87093388782181
H         0.60004907539358    8.36773574624487    4.21231302053829
C         6.20029188263607    7.07006888561759   10.92051293773489
C         5.39032124200744    8.20783427406837   10.64940636878989
C         5.78114753247367    7.86199542768869    8.43912739991272
C         6.33687241205754    6.49248810185218   12.25857782792860
C         5.20977394489246    6.29035539290126   13.05322301807327
H         4.23199393463253    6.54999979608343   12.67465925547234
C         5.34222896059703    5.73993337666504   14.31337554858217
H         4.46496932913845    5.58053794595533   14.92252271964351
C         6.59433789844552    5.39394049524493   14.79651002120121
H         6.69308435539141    4.97031368456189   15.78490033682969
C         7.71692317807635    5.59359015297814   14.01037861908125
H         8.69495367810049    5.32860483315430   14.38399962102095
C         7.59089420859499    6.13528977881165   12.74485102919075
H         8.46247835463722    6.31895849080532   12.13688515699260
C         4.82726096828772    9.06478913345934   11.68736668694330
C         3.54445969272741    9.58694731595406   11.53338512963303
H         2.97928411485637    9.33546221508325   10.64867519393325
C         3.00457881782017   10.39723679671324   12.51333258815294
H         2.00494488681482   10.78959589328569   12.39735187408679
C         3.74611294282604   10.71093717418757   13.64113216475413
H         3.32346759087441   11.34607901382641   14.40553160526142
C         5.03482346986535   10.22049647843079   13.78181382890537
H         5.62110517153480   10.48345931427465   14.64942659843820
C         5.57675014003682    9.39670516265566   12.81460618663643
H         6.59111377714118    9.04110219183918   12.90390755674428
C         6.17541197454669    7.83255622965081    4.87456721258153
H         6.73496546830009    7.21382185198648    4.18955240473816
C         5.46983226109482    8.94219912041347    4.43025349848835
H         5.45660747993880    9.18672160694864    3.37972130893574
C         4.79830707959311    9.72535368236714    5.35632611780394
H         4.25178857688359   10.60448445955482    5.04527659397318
C         4.86291298195860    9.37411960639625    6.69218923463159
H         4.39008466345725    9.95392214791509    7.46847043088063
C         5.59175266902749    8.24082070749457    7.04225014958366
N         6.68799906325716    6.90399090910212    8.70496689821998
N         6.83407450280639    6.48868560853664    9.92076757802290
N         5.13595586240894    8.51474614234213    9.38964853195776
N         6.22883888239441    7.47507330029665    6.14630895149746
O         3.96888405888182    2.70215202239163    6.19614449257114
O         2.20403469578695    7.89875415014089    2.98190048940015
P         5.23424028057715    3.66797756304628    5.87193915488165
S         5.80157825854974    4.34270709256454    7.70398662906018
S         6.53159040302518    2.71749494995188    4.73856131602786

