47
CSD_code = NIDSAV | q = 0 | S = 0 | Stoichiometry = C20H16Cl2N4PdS4 | MND = 4
Pd       -1.20887893926865   -0.00000148751353    5.45798916165771
Cl       -0.18453861546596    0.12705497319692    3.39263895146372
S         0.31637756808851   -4.93742380096966    6.88013903537804
S         0.18753882717610    2.47232348264072    6.10876473479177
N         0.45739900990313   -0.63759507862489    6.27198152187439
N         0.52539907727640   -1.97063791511695    6.33335461346473
C         0.17193344931863   -6.44418109028082    6.08012225030982
H         0.10307422207208   -7.34507473659233    6.65765280382703
C         0.15991732705488   -6.32266869986439    4.72076269367380
H         0.07466983955149   -7.15777439132699    4.04893949304123
C         0.27084091906604   -4.98916562310064    4.30248912979001
H         0.27623605770362   -4.67447395843589    3.27443084134892
C         0.36620709213006   -4.10606633368026    5.35477329370680
C         0.44562139749691   -2.68877835763418    5.27590650293040
H         0.43930238406242   -2.24433519761973    4.27224048117707
C         1.32180145543584    0.06860637174161    6.92076050577249
H         2.14034031661386   -0.44432705910756    7.42581801531191
C         1.29927118336070    1.48568092223673    7.00833281846174
C         2.13867284561220    2.26603299120233    7.77783138219157
H         2.90503961758694    1.85229298753683    8.40829990393795
C         1.87170998478924    3.63589635822898    7.66201640469885
H         2.41357820677529    4.39777094950952    8.19304073720267
C         0.84758095002579    3.89502176310571    6.79885989938798
H         0.44416803688254    4.84959691122224    6.52346223729741
Cl       -2.23309134556319   -0.12676083039900    7.52343582968490
S        -2.73320133270519    4.93767885373208    4.03584385721255
S        -2.60494119332306   -2.47225176614626    4.80715168061182
N        -2.87513971112891    0.63763908479370    4.64387554438302
N        -2.94293551775145    1.97066644013685    4.58246698137762
C        -2.58884904275492    6.44433813584374    4.83609733643680
H        -2.51975724732650    7.34530434765634    4.25869893817890
C        -2.57735640425461    6.32263351927720    6.19542813812001
H        -2.49232693300183    7.15764451171856    6.86740027319009
C        -2.68860937058431    4.98910233191268    6.61347700429411
H        -2.69448761026086    4.67429545086331    7.64147699207912
C        -2.78366867424521    4.10613854010587    5.56105037436013
C        -2.86343020836064    2.68887295733114    5.63988917304689
H        -2.85745720367446    2.24449706145560    6.64356703384825
C        -3.73988760608972   -0.06866292844195    3.99568756409814
H        -4.55879974410953    0.44413152146976    3.49110186437461
C        -3.71723389716498   -1.48575590289891    3.90814764611621
C        -4.55681499957201   -2.26620153974202    3.13893751956577
H        -5.32354760135297   -1.85255664424757    2.50885428081347
C        -4.28946134337304   -3.63602206506218    3.25442013128223
H        -4.83133400163290   -4.39795890515297    2.72348631774372
C        -3.26490674400487   -3.89501740390781    4.11710704639369
H        -2.86112448101457   -4.84952875105381    4.39219106008677

