83
CSD_code = NIDTAX | q = 0 | S = 0 | Stoichiometry = C40H28Br6N8Ni | MND = 6
C        10.85674005453089   19.93957740261195    1.36364740447816
C         9.79183920906624   20.56439253058551    0.62582320347208
C         8.37007108709729   19.60673656794527    2.11589021499407
C        12.24694424362165   20.35923655406735    1.32592144278306
C        13.26583936442495   19.44239660804226    1.58803187749109
H        13.00945561764419   18.40792818395717    1.76544826156113
C        14.58141089179316   19.86003778332712    1.60613690384592
H        15.36945243076745   19.14772845582877    1.80113068280598
C        14.88989985218672   21.19368271896715    1.38336588038277
H        15.91940272426769   21.51822677787446    1.40526474642472
C        13.87798750674033   22.11075502028841    1.14615256390426
H        14.11397903697228   23.15243836749059    0.99343545680019
C        12.55834157112200   21.70335324384396    1.11146990564567
H        11.76986400002709   22.42554859831917    0.96072551542190
C         9.98614929553550   21.26443686930289   -0.63050449229743
C         9.15350826430566   22.33619073112249   -0.95439795562299
H         8.42008816147321   22.66181749640751   -0.23593105519969
C         9.33213828468498   23.00424293781069   -2.14986631996395
H         8.69962254786097   23.84451245745840   -2.38923681850950
C        10.31991804034858   22.60265626136199   -3.03512666385923
H        10.45486274254590   23.12509355623284   -3.97027474199888
C        11.14099153296080   21.53002332302226   -2.72079914110496
H        11.90742626975914   21.21308306537788   -3.41216858963622
C        10.98401427456747   20.86449783279635   -1.52191002344508
H        11.61671114495976   20.02093972395761   -1.28517063764451
C         7.12840614214905   19.57529424455488    2.86564657925466
C         6.14134488209171   20.53679051686960    2.68233013347845
H         6.29432500583706   21.29722914896327    1.93329746455062
C         5.02461895654342   20.49807800029770    3.49584748705241
H         4.24502940613634   21.23670063665470    3.39279958609216
C         4.93878539459419   19.50046406993587    4.45567623093033
H         4.09198180332441   19.43357383945069    5.11957452423736
C         5.96719972675079   18.57863421677946    4.57408482764283
H         5.92113338696018   17.80610456790794    5.32974768631071
N         9.29875104982280   18.70596320896209    2.48073655211552
N        10.52874359065274   18.93356780246161    2.14741382786759
N         8.57601934730934   20.43393544947408    1.10971030859203
N         7.04551450668988   18.61002859984178    3.80032091166121
Ni        8.63659577800682   17.48224356653387    3.82945404869114
Br        7.90691895687091   15.92759169543484    5.45377295277092
Br        7.94398295142086   13.46926679257680    4.11871631613464
Br        8.07441161120217   11.48734581772543    2.71086139888914
C         6.40491323990586   14.72079968218021    1.09113971758940
C         7.51895542755673   14.14340003058375    0.39179647414965
C         8.83695998944900   15.38226070338589    1.77364335977752
C         5.06240640013407   14.16752501043369    1.13311797225056
C         3.97515187117997   15.00493951655992    1.38911411807272
H         4.14865455366547   16.06306654053979    1.51540567372871
C         2.70116925149765   14.47958131358999    1.46697127001592
H         1.86191629566570   15.13184971309380    1.65807360162579
C         2.49982859998961   13.11697166557172    1.30737801643140
H         1.50274561856299   12.70801484201486    1.37285876702135
C         3.57907161861339   12.27917298441063    1.07429019253753
H         3.42739298607722   11.21606050791412    0.96700042533195
C         4.85725653696869   12.79509084096637    0.98296784007382
H         5.69642289973027   12.13368398553773    0.82745466528697
C         7.40509906674578   13.33103619287109   -0.80718939585335
C         8.35948957760728   12.34575842061937   -1.05871256744404
H         9.14691259207684   12.18554114978373   -0.34030742128674
C         8.25602096419231   11.55917688276891   -2.18885533416835
H         8.98750330069608   10.78711290339180   -2.37154151965329
C         7.21615531695041   11.75740592255027   -3.08309430672508
H         7.13759534290107   11.14194939416591   -3.96660207092007
C         6.27387793334945   12.74620790114739   -2.84418311863209
H         5.46764186129419   12.90603432310954   -3.54434290528455
C         6.35979358298074   13.52899046356401   -1.71026800366070
H         5.63090970230813   14.30646706334379   -1.53167936889718
C        10.10136237435863   15.54259822171144    2.48544867912557
C        11.20687473330916   14.77379106963358    2.12875681750491
H        11.10537423393028   14.08160220326116    1.30850205399432
C        12.38050035944774   14.91127875495435    2.84320355643729
H        13.24824175944328   14.32205734629015    2.59011789398321
C        12.41707722069476   15.81301248278915    3.89699889853237
H        13.30674031433097   15.95070952296298    4.48959063684883
C        11.27737783713889   16.53880526644502    4.19642525287534
H        11.27300332662754   17.23205003731055    5.02898240034303
N         7.83949857282169   16.25275852289651    2.01660298468794
N         6.64246353963402   15.84395263073818    1.73530011222555
N         8.71213543090416   14.42969670622822    0.86633999607975
N        10.14949776311910   16.41011618191940    3.50901799091140
Br        9.58328463812275   19.30596591002861    5.74250512299927
Br        9.51370830126057   21.48732546065913    4.33896099894693
Br        9.33379441910698   23.36423648567576    2.62686206609880

