43
CSD_code = NIDTAV | q = -1 | S = 0 | Stoichiometry = C21H15CdO3S3(1-) | MND = 6
Cd        0.18981953028170   11.42227023843098   11.28754492550254
S         0.50765729745680   13.71846674875682   12.44810714804637
S         2.68909464967097   10.70261601388257   10.88814953564026
S        -1.23726452075850    9.64052454515923   10.04611411522851
O        -0.15120923929094   13.39402354481792    9.98391075572016
O         1.20848234325347    9.96731749135625   12.85813765839054
O        -2.06207696620962   11.10668343415737   11.98932417466298
C         0.10190063701781   14.21919704341458   10.87317128954523
C         2.32988739746787    9.88578357739129   12.33664269843811
C        -2.35144627183214   10.18999904913765   11.20928606359824
C         0.05791878876189   15.67221076445752   10.58552416644103
C         0.33372864416579   16.62948484137371   11.55720717301026
H         0.58685893779325   16.30016402029519   12.55333426336263
C         0.28330316364182   17.97361251237152   11.24047385300371
H         0.49950162568454   18.71310768127357   11.99913407118924
C        -0.04224559939306   18.37749366763638    9.95516421029207
H        -0.07992294523317   19.43060276647218    9.71127911879279
C        -0.31853574931029   17.42968808712200    8.98291805062123
H        -0.57291509217303   17.74288111597509    7.97950472330529
C        -0.26912949817887   16.08487399085386    9.29468633557117
H        -0.48027189985927   15.33006489725890    8.55150631943300
C         3.39186351543465    9.06500108991612   12.96379394054889
C         4.68009839501290    8.99381816284879   12.44246354021004
H         4.91159379147752    9.55546784975902   11.55032155740795
C         5.63751082842891    8.21545095257929   13.06444094957892
H         6.63743158531366    8.16417496162419   12.65621174328781
C         5.32170525413777    7.50051658292503   14.20912557348332
H         6.07390413427060    6.89211482255156   14.69290984819828
C         4.04072684435154    7.56658696393253   14.73317076739397
H         3.79218165129742    7.00942484802667   15.62609827752263
C         3.08064384676030    8.34455381053429   14.11586153102526
H         2.07654410350107    8.41113062833096   14.50789395716998
C        -3.68390634062923    9.54321779839896   11.26783877540198
C        -4.05395376127823    8.52430844996051   10.39511243858070
H        -3.34643999868752    8.19695859103461    9.64866076067789
C        -5.30654726829596    7.94881180947046   10.49259767129560
H        -5.58888258804725    7.15723467261475    9.81229623913079
C        -6.20127339696619    8.38104761966537   11.45890762027991
H        -7.18020246030511    7.92698332971051   11.53260508900109
C        -5.83929720232884    9.39527435242024   12.33089655925639
H        -6.53587722445586    9.73336165845170   13.08580195640584
C        -4.58858379539149    9.97420239922031   12.23697843115825
H        -4.28597514656748   10.76519261442220   12.90719212319267

