66
CSD_code = NIDWAZ | q = 0 | S = 0 | Stoichiometry = C26H34N2O2RuS | MND = 9
Ru       -5.06283821347444   -0.54289867599353  -17.45614849527776
S        -7.38919846452004    1.42035004766863  -16.79520207836967
O        -7.09617013100556    1.61610178157600  -18.19428325406844
O        -7.03741351151119    2.47658198299078  -15.87419882209521
N        -4.47376286206099   -1.12691537482319  -15.45862118801013
N        -6.79491781045085   -0.02239747201742  -16.35787425436324
C        -5.68830031865916   -1.33659864961607  -14.65534917286450
C        -6.63256312760072   -0.14297721655597  -14.92630534485936
C        -4.21270350612836    1.28903783990667  -16.89799775520949
C        -5.42045844026566   -1.46765456171524  -13.17802483391753
C        -6.00393153994114   -2.49654281809332  -12.44975422973487
C        -5.80117852875379   -2.59759701754041  -11.08492948296694
C        -5.00873735912309   -1.67055179939426  -10.43073185525798
C        -4.42690864528271   -0.63841356617216  -11.14714856376642
C        -4.63381727969816   -0.53508563643998  -12.51076586643590
C        -7.94668917187306   -0.35883164365270  -14.21464524981262
C        -8.33422058010379    0.48981821565803  -13.18634977425108
C        -9.53672425396591    0.29456315167689  -12.52939263206270
C       -10.36608606553776   -0.75260700015681  -12.89262884864790
C        -9.98768717952990   -1.60274057198370  -13.91810324117859
C        -8.78473068726760   -1.40781136935354  -14.57180073123679
C        -9.20766601368425    1.26351109483434  -16.70301997851773
C        -4.34230137177145   -2.43896660621082  -18.34474943714966
C        -3.49259189299103   -1.40352751138204  -18.82871127987746
C        -4.10551258142352   -0.32036731325176  -19.49442468628227
C        -5.49833890465018   -0.28454058134202  -19.69283217709839
C        -6.32387175276177   -1.34758354106679  -19.24468685015541
C        -5.72827897021938   -2.45631579324353  -18.62169060716645
C        -1.99459690316860   -1.52927045478693  -18.76277619773990
C        -7.79268686817972   -1.30446576425307  -19.59142362913772
C        -8.66157317266352   -2.04577474659633  -18.57741236405474
C        -7.99364557138925   -1.87481792618624  -21.00022394783007
H        -3.94559486042861   -0.35099765060631  -15.04946840742355
H        -3.88455533741027   -1.96067346900698  -15.40827703560292
H        -6.17734818673393   -2.24336743193344  -15.03037649723806
H        -6.17145696012407    0.77581887801356  -14.52533415228359
H        -3.11740282326185    1.20927593609379  -16.85807099496374
H        -4.47044865041555    1.98741609946249  -17.69408183767848
H        -4.55522042012619    1.74758262836283  -15.96785257247243
H        -6.62939961742053   -3.21754144696616  -12.95573140126569
H        -6.26389381726507   -3.40107531741352  -10.53156808004789
H        -4.84852436741491   -1.74852406177992   -9.36593982680695
H        -3.81416611792008    0.09271628696555  -10.64111264039284
H        -4.19156147075954    0.28993669994556  -13.05170043791320
H        -7.69347933338500    1.31399530866751  -12.91140959777784
H        -9.82814299501261    0.96314333790977  -11.73270885331908
H       -11.30513841566842   -0.90427257887513  -12.38094503518718
H       -10.63218599144926   -2.42012873023481  -14.20794752563297
H        -8.49470307341125   -2.06660962123376  -15.37634813278944
H        -9.49759896734173    0.36217063023426  -17.22272636033802
H        -9.50549604997162    1.23445826130626  -15.66441530191732
H        -9.61422372251076    2.13850843949913  -17.19306898031732
H        -3.88397591910178   -3.32034904540623  -17.89734100264950
H        -3.48404241470592    0.46102668369612  -19.91914499325518
H        -5.94379992466522    0.53644838688912  -20.23950101233015
H        -6.31090808854073   -3.32845286748987  -18.35831671512981
H        -1.68590907392786   -2.15987421277716  -17.93042421776039
H        -1.52904876705066   -0.55210281100420  -18.65250961325038
H        -1.62004035046519   -1.97913676059761  -19.68490643156912
H        -8.08601778617723   -0.24905474450877  -19.58708913543123
H        -7.40986743850308   -1.31641249712808  -21.72831607440172
H        -9.04265513997749   -1.81888977383092  -21.28198743099847
H        -7.68132762073429   -2.91769928469598  -21.03608881760836
H        -9.71254554702104   -1.82286280427232  -18.75119440011280
H        -8.53323623628360   -3.12432464039890  -18.65583159968223
H        -8.39198283516835   -1.72125832937428  -17.57475805506905

