79
CSD_code = NIDXEE | q = 0 | S = 0 | Stoichiometry = C33H40N2O2RuS | MND = 9
Ru        4.91474757093683    2.59198091890303   13.99377269781575
S         7.11078814355431    0.35412266479333   13.81966415235242
O         7.44981935465406    1.12006683853575   14.99228114922313
O         7.99407800905167    0.42302371093807   12.67586022470223
N         4.16107783615330    2.46404979590828   11.97668455764932
N         5.57050362815796    0.68363896548881   13.44085642159353
C         3.95200231766521    1.03778068924676   11.67949668268164
C         5.22599163823313    0.27031418775155   12.10510446851135
C         6.60549313849456    3.38998361090114   13.03089115080691
C         2.98584891920542    3.26140679313356   11.63133420372176
C         3.65518995558897    0.75116299175591   10.23000504570873
C         4.43432065952306    1.30119708888705    9.21741037191546
C         4.18611389490970    0.99013079206766    7.89273540408909
C         3.16382970288920    0.11659491130908    7.56210309949771
C         2.39171345810087   -0.44533056442827    8.56385351752762
C         2.63507453778628   -0.12750138842463    9.88822362861557
C         4.95922499559604   -1.21447984694906   12.02350627680745
C         5.44454997600932   -1.97172466812054   10.96755816240691
C         5.19514148542515   -3.33164728709834   10.90986317942576
C         4.46028756015391   -3.94728207496507   11.90778912778257
C         3.96540943935607   -3.19561477249292   12.96018796205495
C         4.20792266390228   -1.83635737010792   13.01144158890856
C         7.04402668204653   -1.37519372019192   14.31420142081359
C         7.50125145018001   -2.36038718183498   13.46139220057010
C         7.34416005116596   -3.69011093111649   13.80505844274920
C         6.73022700436223   -4.04590429885771   15.00154213872943
C         6.30118602438459   -3.04104928600504   15.86053397143846
C         6.45943693951550   -1.70966046004989   15.51837786730930
C         6.52535014638087   -5.49098301372329   15.34307578942669
C         3.69889352726967    1.73756377141026   15.87457389165892
C         5.01262825895262    2.16545319419228   16.23311957203204
C         5.44344945086795    3.47199367098248   15.99466233515716
C         4.61901815745157    4.39456896869554   15.28250453939398
C         3.35095678553173    3.93460203634618   14.85609512958593
C         3.20829276540986    0.38741702678943   16.30663968891245
C         2.87960363254440    2.63396126315332   15.19717523908473
C         5.02032723017726    5.85145075417888   15.21196765808823
C         4.50163304040246    6.56343610078909   16.46726694305309
C         4.52420561856227    6.56042318754368   13.95237539734631
H         6.04670913555029    0.52133119151005   11.40906042367671
H         3.12269332274053    0.68927687270052   12.30904292517359
H         6.39145683746109    4.30672194445399   12.46468542868343
H         7.12838212563609    2.69607248196796   12.36901852638300
H         7.31066038267844    3.64669935578202   13.82052264076574
H         4.93648949900778    2.77830446116551   11.38298729933387
H         3.19512327810518    4.31386776484897   11.81954144178435
H         2.71226248068075    3.13659933612133   10.57750371494312
H         2.13895571315885    2.95000764591000   12.24351995405717
H         5.25049556551572    1.96776309590489    9.45989969484624
H         4.79741074457395    1.42587951820569    7.11637592711856
H         2.97421956358611   -0.12854913770284    6.52791887302617
H         1.59806394927502   -1.13361627959351    8.31428045144879
H         2.03530538184176   -0.57342211235837   10.66839585436745
H         6.02665117550501   -1.49350737336115   10.19333236078935
H         5.58050488034952   -3.91368365891237   10.08544935491782
H         4.27323821223238   -5.01046444660809   11.86547948215713
H         3.39002637181577   -3.67078373432322   13.74169385688732
H         3.83502535509841   -1.24027356051305   13.83018179733663
H         7.97626872193459   -2.06336620217431   12.54008391555484
H         7.69583632125260   -4.46396858254566   13.13798151905022
H         5.84023506817787   -3.30508013647065   16.80237570975333
H         6.14971618909860   -0.91476246346700   16.17805919418943
H         5.68927055463942   -5.89124462366789   14.76910187507493
H         6.30584026964222   -5.61638072755093   16.40037990412034
H         7.40912176392389   -6.07466340164956   15.09457067092644
H         5.65140944431635    1.49794417244586   16.79861349124402
H         6.40010346715514    3.79689039047139   16.38748121491387
H         2.65140105781501    4.63203788064371   14.40565742258461
H         1.85286270645566    2.36558355571511   14.96716216771732
H         3.13832573042595    0.34552892656514   17.39526813035312
H         2.22486590877273    0.17447059361976   15.89009800898336
H         3.90225093703199   -0.38917646507535   15.98693899302165
H         6.11449840946242    5.89647218771759   15.21563841708667
H         4.81057437222218    7.60623576578511   16.46553521588453
H         3.41426587519071    6.52453678531831   16.50242737184884
H         4.89100834553900    6.08804047378707   17.36470346910259
H         4.97396038657987    7.54817145577168   13.88363111436359
H         4.80417695113931    5.99067142124914   13.06916206017298
H         3.44355789383688    6.68543855898114   13.96685482722382

