83
CSD_code = NIDXAA | q = 0 | S = 0 | Stoichiometry = C35H41N3O2RuS | MND = 9
Ru       -1.41424345854849   -1.49449797609524   -6.71266409771088
S        -2.93184722617463   -4.11046071513446   -5.79438184051221
O        -3.73918719314816   -3.05533158699864   -5.22704836036393
O        -2.07810165842949   -4.85583481688901   -4.89287625800608
N         0.38133691910208   -2.49642773693696   -7.40867330320233
N        -2.11474386190273   -3.47246875988814   -7.03766227400453
N         1.45393462650974   -0.78472675915761   -4.74228719622216
C        -0.04640258449573   -3.57626662293286   -8.30433842596262
C        -1.12716214392947   -4.39127797893245   -7.55157857666397
C        -0.75490373295491   -2.07754343208475   -4.78168583514514
C         0.45223926533134   -1.36566104976791   -4.72152222115640
C         1.07340013120071   -4.47623006506737   -8.75959990265091
C         2.02309551457848   -4.95259437059300   -7.86279827683150
C         3.01807136049503   -5.81515376116300   -8.28712103983939
C         3.07206858816848   -6.21978797935409   -9.60998187585327
C         2.12489715216973   -5.75800922413843  -10.50755233219156
C         1.13391484684341   -4.89077285440308  -10.08443960915799
C        -1.72769916132616   -5.39784445045388   -8.50505176308398
C        -1.23726546489483   -6.69382243984211   -8.57722447008281
C        -1.78522173427390   -7.59921881803845   -9.46825977408150
C        -2.82839763152985   -7.21844649141338  -10.29405681995535
C        -3.31839770170212   -5.92500441924800  -10.23100836472022
C        -2.76443128188301   -5.01953037892551   -9.34630706225337
C        -4.03816206276021   -5.32231034914321   -6.53721067603871
C        -3.69684160026504   -6.65902509089678   -6.47017684857232
C        -4.48315136166929   -7.60289716821314   -7.10450450693442
C        -5.61967843467510   -7.22042147022726   -7.80749921011979
C        -5.96413759074894   -5.87395963399772   -7.84049852013503
C        -5.17710583127104   -4.92737352927453   -7.20922365860982
C        -6.44517853272231   -8.23759731836797   -8.53477570580404
C        -1.85974549082515    0.60529311764203   -5.92885452756657
C        -0.88241791605612    0.72258971439336   -6.94985650343577
C        -1.13356669526522    0.12544654243194   -8.22905020011750
C        -2.40184016770028   -0.43462288013736   -8.53278711295987
C        -3.35051059310562   -0.57932987464373   -7.48465225596185
C        -3.11161752161855   -0.02880367616207   -6.19366260986540
C        -1.59099017733619    1.24315705769293   -4.59072355329964
C         0.33918165142156    1.57347964995781   -6.70838430896644
C        -0.08942490106365    0.22609973184916   -9.31714705677486
C        -2.77762528436677   -0.77910820944959   -9.95339164493713
C        -4.68197674542933   -1.22256802706461   -7.75070147125667
C        -4.24053392565800    0.00230579621035   -5.19658303856687
H         1.02983965728421   -1.87425145590235   -7.89506324471856
H         0.89735167962927   -2.90191159675282   -6.62279435295525
H        -0.53097583541548   -3.11585867337940   -9.17480025195290
H        -0.64244940050575   -4.93022192043108   -6.71704889023978
H        -1.48371636422072   -1.70398771435727   -4.05919323838006
H        -0.60520360535449   -3.14615135765803   -4.60310284627926
H         1.98618669094093   -4.66453226231427   -6.82136836281169
H         3.74995036508587   -6.17641836548523   -7.58017709738502
H         3.84713400115085   -6.89568947736647   -9.93848231494167
H         2.15669561577802   -6.07406858439982  -11.53949914918013
H         0.39085135788191   -4.53836920390919  -10.78535941160916
H        -0.42774747797174   -6.99539221210698   -7.92849538792499
H        -1.39895027890458   -8.60678104193487   -9.51502785164590
H        -3.25902607121651   -7.92833591385580  -10.98507784851085
H        -4.13389745886809   -5.62333270072250  -10.87239029773182
H        -3.14418026573541   -4.01179246173465   -9.27034027275942
H        -2.81704581922247   -6.93796345520315   -5.91265997924458
H        -4.21160110238412   -8.64754683279442   -7.05769833754931
H        -6.85596676284683   -5.56579988117589   -8.36785825722545
H        -5.44086007602646   -3.88345625961934   -7.22519622272557
H        -6.07649568232264   -8.34683179689151   -9.55525133650806
H        -7.48765948328538   -7.93200258655534   -8.58331662761772
H        -6.38242414449319   -9.20827623537181   -8.04918887843044
H        -2.12291402337617    0.72991707825970   -3.79530723352963
H        -1.90772764365281    2.28809379376313   -4.60172364082763
H        -0.53168473795576    1.20364867686581   -4.35243735016890
H         0.05990235876145    2.47638984420534   -6.16865499452603
H         0.80722024089635    1.88011658199035   -7.63858728017780
H         1.07563846315354    1.03578262307567   -6.10639946377220
H         0.91577866453066    0.23493452763689   -8.90110220134677
H        -0.22386153501065    1.14657069592338   -9.88924288805597
H        -0.15886350642895   -0.61378345887820  -10.00545468009786
H        -2.20508060023797   -0.18403016697851  -10.66075196627391
H        -3.83054194896174   -0.56486955424291  -10.12431629406896
H        -2.60740919679895   -1.83333784002269  -10.17677680923317
H        -4.62506997932365   -1.91831965979639   -8.58287449431885
H        -5.43810487552537   -0.46643318225186   -7.97476701448559
H        -4.98540718870736   -1.77352468390243   -6.86429277180701
H        -5.16766527306879    0.28964243711770   -5.69063773505637
H        -4.05644840092570    0.71390998828888   -4.39843970556834
H        -4.37450074441710   -0.98957740623881   -4.76423992876397

