25
CSD_code = NIFKAP | q = 0 | S = 0 | Stoichiometry = C10H6N4NiO4 | MND = 4
Ni        6.48167784829395    2.21864800204454    8.98617517328355
C         4.18695109150768    3.46280158609099    9.61055421205615
C         4.62283752281472    4.01741737412009    8.25270185064195
C         3.95012905377302    4.97802567587982    7.50480766840432
H         3.02844389015964    5.40685780830441    7.87182936117579
C         5.53565130240244    4.86069094502634    5.90208734344070
H         5.89635863601974    5.21067747722726    4.94543130246630
C         6.23612349050035    3.89767653212312    6.62440037452737
H         7.16071976615098    3.45971778934747    6.27061495283192
N         5.77063738156130    3.48158814039697    7.80137292411710
N         4.40778418081730    5.39357469119993    6.33761994988734
O         5.02118723886368    2.58584880549836   10.04873704232144
O         3.17744608405885    3.83488131195041   10.15847927246555
C         8.77679892433092    0.97499983389372    8.36199771512063
C         8.34081504183399    0.42017700690774    9.71973906984002
C         9.01345272266060   -0.54052997545830   10.46755962016558
H         9.93516167644836   -0.96932998000421   10.10056041522248
C         7.42795043162638   -0.42318459087244   12.07030447854909
H         7.06722109783508   -0.77319863081336   13.02693988971090
C         6.72749334355848    0.53985410971409   11.34801331824741
H         5.80287082029284    0.97778237467532   11.70177908849652
N         7.19300953607439    0.95599241146907   10.17107296646222
N         8.55577725502719   -0.95611034748367   11.63473120271711
O         7.94244384866271    1.85183038069393    7.92378437925133
O         9.78615781472549    0.60261126806838    7.81380642859728

