43
CSD_code = NIFORN | q = 0 | S = 0 | Stoichiometry = C19H17N5NiO | MND = 4
Ni        0.75405323719267    1.05722293442012    6.78491456183576
C         3.36729569245577   -0.40973132539577    7.89673761046020
C         4.47110359359334   -1.20998534821629    8.42096208674285
C         4.67869508738371   -1.31100109221639    9.79570961732747
C         5.72190466273343   -2.06960676456173   10.28976348487085
C         6.57202397512081   -2.73662033007711    9.42242936394280
C         6.37230249479014   -2.64067403257014    8.05443809077311
C         5.33037119942001   -1.88449745110713    7.55467761669836
C         1.06343762616140    1.84859407555661    9.35855150614827
C        -0.13000630488573    2.46274203880394    8.87092264629336
C        -0.82425384537541    3.32629163497281    9.74397260794101
C        -0.34419667790940    3.54843967244270   11.01023672575750
C         0.82889380154901    2.93691787936723   11.46976209941191
C         1.53629944326810    2.08933912873936   10.65360613329785
C         2.16748607030918    0.23203826208133    4.64077472685027
C         2.73621945993831   -0.78779738512354    3.87458917197508
C         2.66402277947463   -0.72845217711423    2.49720196447786
C         2.03285215256827    0.33462033395519    1.86833622475610
C         1.47950420179699    1.35796032300637    2.62430217254524
C         1.55373775608654    1.31667104208618    4.00166716000456
N         1.66034730181521    1.02373306027826    8.43447296912181
N         2.65859476434253    0.31577454943822    8.77098610523636
N         3.15125063759302   -0.41783396421415    6.59551326610665
N         2.19659146847543    0.23417490089284    6.03171588969131
N        -0.84803664277106    0.33182324010436    5.52764542854570
O        -0.51012796009251    2.19034029678903    7.66983984659905
H         4.01136860595198   -0.79113358935271   10.46548243174087
H         5.87498693765546   -2.14238525548840   11.35687097394217
H         7.38768522103619   -3.32864022157418    9.81095077357902
H         7.03431752380332   -3.15875546600521    7.37553913860681
H         5.17138496814096   -1.80073839221050    6.49070604885935
H        -1.72816568610632    3.80149863146262    9.39425843241480
H        -0.88257972559979    4.21178291156929   11.67225220140503
H         1.17549729659571    3.13707043826084   12.47223402647910
H         2.44478405400418    1.61031527977591   10.98474994093409
H         3.21645770104960   -1.61341794992818    4.37640852073332
H         3.10080123374758   -1.51895022415855    1.90532622855125
H         1.98143172450482    0.37153487419301    0.79078591472942
H         1.00586988039045    2.19610591287123    2.13449862401075
H         1.16728148996895    2.13201347319095    4.61598013282481
H        -1.37940777225569   -0.35215250341554    6.06046443070808
H        -0.65998086864076   -0.05043165646041    4.60619303209249
H        -1.43599855933028    1.15690023494770    5.42717007099482

