58
CSD_code = NIFRID | q = 1 | S = 0 | Stoichiometry = C19H36P2Rh(1+) | MND = 6
Rh       -7.46815489199362   -2.01082219097711   -4.89732377166625
P        -9.68827222945925   -1.93091202617316   -5.44836503578297
P        -7.40982392379446   -3.74895677222307   -6.38680303379536
C        -9.99563897863801   -2.96923895105488   -6.94883236503404
C        -9.13144462044241   -4.21885515639491   -6.87837800163673
C       -10.72211889492707   -2.78121612721739   -4.19852988367302
C       -10.58213726458365   -0.33017240170196   -5.85184463017839
C       -11.96577111057471   -0.56348379826704   -6.45381992938678
C       -10.73079226555588    0.47587984495042   -4.56068757443721
C        -9.69108087765235    0.40906350011351   -6.85510601663354
C        -6.69168207623234   -3.26663348296112   -8.00055377612889
C        -6.63184231877310   -5.40024662384366   -5.95049888617143
C        -5.11226911542543   -5.22823292469733   -5.94135505495370
C        -7.00140594065784   -6.50582655088980   -6.93659212020567
C        -7.15001597007861   -5.74957013774709   -4.55180806676414
C        -5.70965285254220   -2.34896950363159   -3.65479709230632
C        -5.35329835004511   -1.54299779080457   -4.71416554233986
C        -5.54979692048346   -0.10314513339576   -4.23990162570623
C        -7.06941023708690   -0.01285400438420   -4.12694531105889
C        -7.43485133585493   -0.82603777332799   -3.07617379286231
C        -6.13867949983695   -1.41807830286255   -2.52364758140219
C        -5.17257921057736   -0.24307373574359   -2.75479852651486
H        -9.72540906393008   -2.37878742825598   -7.82761462616132
H       -11.05432112584703   -3.23018580083087   -7.01817927989292
H        -9.52629170337636   -4.89813282906585   -6.11935948796775
H        -9.11923471290639   -4.74177113472334   -7.83769369687663
H       -11.74389566722778   -2.90372638628228   -4.55359847797210
H       -10.72270600049120   -2.21395912897675   -3.27026061316285
H       -10.28852263958581   -3.76083174935401   -3.99814677075874
H       -12.44534944946255    0.39973162714372   -6.61799079197471
H       -12.60223759823584   -1.13722392107219   -5.78411773263315
H       -11.91195680866750   -1.07165158405961   -7.41290984607078
H        -9.78297081796709    0.57147123490245   -4.03689411799165
H       -11.44999262270269    0.00585654268256   -3.89339419932342
H       -11.09516478642275    1.47595961864588   -4.78756777074053
H        -9.79087522229471   -0.01829965035748   -7.85063942445322
H        -8.63927217405604    0.34770005342906   -6.56485841186896
H        -9.97260755298197    1.45793926432554   -6.91623005050919
H        -6.81006256985104   -4.06263354611257   -8.73380770521656
H        -5.63590691026852   -3.03236939082245   -7.88293811009906
H        -7.20348029894371   -2.37129033281951   -8.35318618396271
H        -4.64114926352195   -6.10954933470806   -5.51033628242941
H        -4.81064846590390   -4.36196031180947   -5.35740702738683
H        -4.73223417590706   -5.11180434876730   -6.95395182687558
H        -8.06627425802603   -6.72230336046585   -6.92652706285705
H        -6.47729061184619   -7.41772500955874   -6.65648991045564
H        -6.70215973991055   -6.25346971987803   -7.95128710687257
H        -8.17983064710024   -6.09835419206262   -4.59614469216894
H        -7.11623604834086   -4.87812744820609   -3.89272438804134
H        -6.55163397682102   -6.54235883251934   -4.10848145737868
H        -5.41953600556378   -3.37479423023130   -3.47984509347004
H        -4.73228625250587   -1.80501083931722   -5.56034408530864
H        -5.05804610464555    0.67202226276480   -4.81978788110786
H        -7.63327973485796    0.80123488819427   -4.55881695933517
H        -8.35710769328308   -0.79888404906204   -2.51131560367435
H        -6.18610644409926   -1.85054373141193   -1.52881215102010
H        -5.42006277225176    0.63859822342087   -2.16507682569476
H        -4.12804119509202   -0.51028538149255   -2.60023672962429

