61
CSD_code = NIFWEF | q = 0 | S = 0 | Stoichiometry = C18H38Br2NiP2 | MND = 4
Ni       -2.32219832497461    7.61923304361970    9.04609492375249
Br       -2.22619791096931    9.07091875320304   10.78832945201600
P        -1.33180700862165    9.16814338724088    7.79332125303327
C        -0.65102518737926    8.74225568673724    6.11922599774639
H        -1.45718337772142    8.22962746281383    5.58377535678158
H        -0.41493751790250    9.66986240966893    5.59295202079827
C         0.53408600802251    7.84180829188298    6.17779523540966
H         0.38580555776223    6.90903103230605    6.70654989655431
C         1.69649326116225    8.10164463910838    5.60689374749817
H         1.87166387726349    9.01046543259322    5.05249859428743
H         2.52199882463181    7.41281417841371    5.65873225995554
C        -2.68042580997034   10.35637685633834    7.26378450802044
H        -2.39435749097885   10.74511480929491    6.27787260792139
C        -3.95973388878618    9.52903550125851    7.12208836614515
H        -4.19452821209665    9.03743378862133    8.07755995566024
H        -3.85294178934606    8.76436906151009    6.35256816020609
H        -4.80659102126550   10.16103071977434    6.85930234978397
C        -2.90666618011727   11.52778238586010    8.21336072034956
H        -3.73720082331611   12.13020287733262    7.84681143829517
H        -2.03092301071813   12.16835971735619    8.27824955552685
H        -3.15801961048772   11.18473362273648    9.21375356938078
C         0.01811995321897   10.21256627871086    8.54241718520725
H        -0.46240358263441   10.78103655232109    9.34632261711361
C         1.06684204261156    9.29603523384053    9.16936488185462
H         1.56311520000847    8.69612399133376    8.40811012204467
H         0.60689849180213    8.62701977244765    9.89657966442786
H         1.81844002879623    9.88677091141748    9.68950137639241
C         0.65996175312422   11.18439065451729    7.55973272867879
H         1.28294500876009   11.88844463184184    8.10965284814806
H        -0.08491541540804   11.75458214827259    7.00762130032889
H         1.29664104291345   10.65730582559298    6.85392438112030
Br       -2.41887648366505    6.16767128731168    7.30380744752479
P        -3.31319052701132    6.06964981015078   10.29760086841325
C        -3.99396960737297    6.49579214183964   11.97168103149663
H        -3.18779858441002    7.00835919672227   12.50718355917733
H        -4.23017919009511    5.56826963980734   12.49804756990127
C        -5.17899696700644    7.39636471389413   11.91316553172582
H        -5.03061203168109    8.32913053309407   11.38442734991779
C        -6.34143778137923    7.13667424132062   12.48408282242028
H        -6.51674747704131    6.22786161612475   13.03844693801169
H        -7.16689737183670    7.82555408101874   12.43214396863760
C        -1.96466317443937    4.88148900341491   10.82749420782551
H        -2.25078595625659    4.49283730903970   11.81342734100751
C        -0.68531833982489    5.70879404916906   10.96917968698886
H        -0.45052364177130    6.20035886416697   10.01368061230943
H        -0.79206932621043    6.47350955277458   11.73867041654576
H         0.16152138457563    5.07677184933047   11.23199473054231
C        -1.73846504057380    3.71005731739134    9.87796639233427
H        -0.90797192057706    3.10762361401448   10.24456441260732
H        -2.61423564731457    3.06953231733026    9.81308237946489
H        -1.48707418535288    4.05306887618767    8.87757719197961
C        -4.66321555273111    5.02528226597818    9.54869908185295
H        -4.18266842007822    4.45676013557593    8.74485441223847
C        -5.71184158435394    5.94187688946137    8.92169968226594
H        -6.20808147077065    6.54187426647799    9.68291053294337
H        -5.25182433013982    6.61081064059299    8.19445379517562
H        -6.46346787363266    5.35115854214378    8.40159219766276
C        -5.30507217925693    4.05359613242021   10.53150628633976
H        -5.92808297288245    3.34949922514143    9.98167485828132
H        -4.56019269719269    3.48345729292393   11.08367385106182
H        -5.94171593709985    4.58079493721407   11.23726376890827

