41
CSD_code = NIFWOO | q = 0 | S = 0 | Stoichiometry = C22H12FeN4O2 | MND = 8
Fe        7.32329883665919   13.36830701845520    2.13803421701415
O         5.31989372070492   15.14709811801153    1.07153324578195
O         8.70721869850460   13.84994462770172   -0.34544205866942
N         5.28893580082080    8.54397630152609    3.26724534167026
N         6.78665201413057    7.54545795060178   -0.54168838580280
N         2.64428577761681   10.39560802802254    1.72954105072456
N         4.16513890312919    9.51053363043940   -2.09401581432750
C         5.42256346456876   11.77540140888485    0.22637290290695
H         4.67145694226985   12.54728522762253    0.07331426769215
C         6.51073341632785   11.67106617673124   -0.80293299130806
C         7.53283548156029   10.91260436147844   -0.22041698468592
C         7.06563379617377   10.55877038187292    1.16230971254868
H         7.82585033627936   10.21535307555955    1.86042960049828
C         5.93315634446943    9.48576778687438    0.94380780889922
C         4.78922467863467   10.33265483391483    0.28052427197118
C         6.22428292812405   11.78913163240654    1.53370995204760
H         5.55872553621746   11.57766469063953    2.38550594003023
C         6.60518482834127   12.11347094915208   -2.10221800338322
H         5.81295759553102   12.68661567141702   -2.55864029533010
C         7.76419428581210   11.80619529379595   -2.80549620259194
H         7.87427454616384   12.15470919622215   -3.82075626941988
C         8.77509595088364   11.05557956423606   -2.22926397590714
H         9.66071429727730   10.82779901143965   -2.80227988224708
C         8.66676006882084   10.58323531891219   -0.92659590073845
H         9.44951237405032    9.98512432499768   -0.48541526171324
C         7.08236765350442   13.43423673482822    4.37058616479695
H         6.18234743869753   13.48636185234192    4.95966756321172
C         7.85307688413004   14.54602618247360    3.93512731501430
H         7.62471707810631   15.58174637843664    4.12581471648224
C         9.03664147749326   14.05210720719086    3.34943636882029
H         9.87465139798850   14.64239048108890    3.01700785594640
C         9.00076970463561   12.63158409191940    3.42116307469627
H         9.81654529291378   11.97421847475649    3.16985179314437
C         7.81350528562176   12.26081512007826    4.08726350113581
H         7.53516177731285   11.26148134030789    4.38126298731081
C         6.08691286859702   14.42842348115458    1.52250449867490
C         8.13069990133216   13.55994087297463    0.59931934650011
C         5.54227781785923    8.94352271602654    2.22784454545739
C         6.39042667000482    8.39889306880065    0.10483669074218
C         3.58880408556905   10.34706953134149    1.08983915319978
C         4.44231404312120    9.85902788537256   -1.04289186079719

