55
CSD_code = NIFWIK | q = 0 | S = 0 | Stoichiometry = C24H24O6Ti | MND = 12
Ti        5.67529296128315    7.42456577078390    3.12562594026822
O         4.63006923335860    7.99201364570441    4.50157657895941
O         5.09447728261388    6.48798593028099    6.03764201224759
O         4.85102249123138    8.81431084058492    2.19558423354812
O         6.08859965488402    8.42061528912618    0.42228875296248
O         2.32862925141525    9.84450461103358    7.47712736397641
O         3.69691626640749   11.55690232171139   -1.22998134690110
C         7.93576858020423    7.63030233272054    2.56113113419203
H         8.34234369023632    7.35981322781451    1.59545870809678
C         7.91073640243158    6.82127007429197    3.72109237902354
H         8.31157875245805    5.81940131470906    3.80617825018904
C         7.46962865425917    7.61221686153418    4.79676936586671
H         7.42355867103448    7.30122498645580    5.83058904899233
C         7.21272859449476    8.91010602723256    4.30932014198601
H         6.92217091304186    9.76791040843935    4.90382702180237
C         7.51618444765425    8.92523882681422    2.93146436214161
H         7.53166574729576    9.80164755479334    2.29598532716873
C         3.88137554970924    6.20764248406481    2.02535945970319
H         2.95473849857162    6.63963376684545    1.66618903899352
C         5.04069913991444    5.97230100594227    1.25464609996568
H         5.15290804002657    6.17776400241359    0.19982147886012
C         5.97497126354692    5.30596710628732    2.06415864612680
H         6.90792588242763    4.87868179226468    1.71986312087877
C         5.39340148417259    5.11416926713457    3.34140283522624
H         5.80161768091362    4.52956259229313    4.15556888816850
C         4.08940364405814    5.64813745301588    3.30357335433712
H         3.34832500689437    5.56435313964236    4.08795939014826
C         4.51638498210842    7.51398239311246    5.70247714519368
C         3.65852005276005    8.28361759132262    6.61721831810369
C         2.99844641222521    9.46514668859223    6.37267624282643
C         2.54647005692378    8.91555748110868    8.44577286709575
C         3.35694852651098    7.93658167673065    7.97027120435433
H         3.71277807868569    7.06845338366484    8.48393441540240
C         2.91544010724715   10.33094165863778    5.16813861688194
H         3.52027835106930    9.90265777344343    4.36952890551694
H         3.27226904577721   11.33389456467673    5.40252727080554
H         1.87932932886803   10.41307733350109    4.83921116604779
C         1.90327565177482    9.12018183851946    9.76988236073678
H         2.16906840900957    8.30321107207239   10.43309220211420
H         0.81969634887819    9.15868410126568    9.66514243772465
H         2.23109936164181   10.06077375349818   10.21078708998155
C         5.18586593717593    9.05251658824378    0.97136034072848
C         4.42559804592644   10.11235289023981    0.29484776101713
C         4.59298226256232   10.58465200147323   -0.98520634840710
C         2.93867905733593   11.72483967304805   -0.11361289808385
C         3.34473411226698   10.86311686739914    0.85299347653436
H         2.94983896198208   10.74874832481383    1.84156371941167
C         5.55309168366323   10.19851935087478   -2.04644801012697
H         6.20054401867754    9.41829246628722   -1.65766200526237
H         6.14965134114481   11.05785937492868   -2.34999379167417
H         5.02174960396032    9.83201069111094   -2.92400353486813
C         1.86731346075854   12.75460063264603   -0.14364263531605
H         1.34884198043429   12.76908384030813    0.80987230224396
H         1.15308951175245   12.53712593295102   -0.93679862864809
H         2.29137752433385   13.73937742160579   -0.33585157724201

