77
CSD_code = NIFZOU | q = 0 | S = 0 | Stoichiometry = C39H32Br2OP2Pd | MND = 4
Pd        4.74934584294581    7.48304427362763   10.60186692106647
Br        3.55804961885480    5.92140483676001   12.00381455680503
Br        6.61202198815209    5.91276571647495   10.34823381801334
P         3.16866066715070    9.00635679144034   11.05749701039942
P         5.58512134056290   10.38464231265191   10.15473500066005
O         4.05927502081373   10.16590524420805    8.48928013526523
C         5.69192440022708    8.83020731879208    9.27335419753670
H         6.66404227245974    8.40933252516492    9.01659061321940
C         4.62688499193326    9.04656492752899    8.33432170127985
C         4.12091228962229    8.09596099613980    7.34132737313140
C         4.23933134516917    6.71167402966770    7.49118270282118
H         4.76130858471041    6.27801393196008    8.34612913451857
C         3.65836024057504    5.86450858498236    6.57101511820816
H         3.73212700065108    4.79677341621378    6.71345384718884
C         2.94312030953575    6.36767867806380    5.48406318321259
C         2.83034258537489    7.75052236132833    5.33828582538865
H         2.29573256546508    8.15610468620950    4.49194346835052
C         3.40646456129508    8.60252028937096    6.25420131051200
H         3.31544376538007    9.67364104179022    6.15077560267660
C         2.30895512190941    5.45818646645216    4.52078450944361
C         2.97501738917716    4.31708660343737    4.07869489773333
H         3.97345014128163    4.11124908979967    4.43542079534573
C         2.37868930591258    3.46513596344246    3.16795913608414
H         2.90877634669804    2.58756354620454    2.82817009539029
C         1.10562973472356    3.73324393157078    2.69285770886327
H         0.63933155150385    3.06488727620312    1.98426935206559
C         0.43211938423855    4.86127858056006    3.13123909570219
H        -0.56281139046645    5.07223132069403    2.76680153747141
C         1.02973006035377    5.72015153059756    4.03456429566404
H         0.49470171857777    6.59137903349681    4.38493861688226
C         6.14536523998639   11.79848684799985    9.18279208770809
C         5.38480634840417   12.93207796352013    8.93933212683487
H         4.39506349758384   13.02497204088357    9.36003591473603
C         5.90058971855312   13.93910266094605    8.14255094356332
H         5.31213971099381   14.82414797000364    7.95054186523328
C         7.16399222176751   13.81377190764997    7.58798071585442
H         7.55865122881455   14.60223754127134    6.96492146199347
C         7.92155733897767   12.67768033855404    7.82752272643966
H         8.90491948797107   12.57847678747038    7.39291415193172
C         7.41349334473515   11.66898358047102    8.62358647335987
H         7.99475592086975   10.77788817426797    8.82695549099557
C         6.75835772222906   10.30229929859306   11.55510158543271
C         7.46845659163437   11.44410215022316   11.91853086608254
H         7.36672737848552   12.34689656594104   11.33124435136732
C         8.30673663517891   11.42696474926532   13.01814318180647
H         8.85744194877793   12.31706985461193   13.28438403879371
C         8.43992871008604   10.27350457082557   13.77379785619232
H         9.09870343796614   10.26028311521596   14.62887583428019
C         7.72385613031532    9.13842799046431   13.43205725405063
H         7.81921448009985    8.23591600329618   14.01678979471031
C         6.88272397732786    9.15251000763486   12.33354345242762
H         6.32858469241485    8.23342899944388   12.09098541974394
C         4.00751354129687   10.67326612333933   11.04947661404482
H         3.40815102355564   11.43132024664797   10.54503079103854
H         4.22657740342756   10.97311533499264   12.08081321041540
C         2.37706959351124    9.06337455214043   12.68809019984730
C         1.00476372137455    9.15751000192991   12.87364764916900
H         0.34423863974585    9.21542060239984   12.01978495452877
C         0.49016300032581    9.16175597935091   14.15892029571807
H        -0.57742313070876    9.23240635370682   14.30609849251994
C         1.33528159951012    9.06131439812054   15.25073267742018
H         0.92567308196549    9.05420119802702   16.24967132901500
C         2.70519818800228    8.94958377835393   15.06565451901677
H         3.36210593897860    8.84941144367818   15.91653046053881
C         3.22552761538924    8.94671456805563   13.78763477523884
H         4.29396385650983    8.82359554104863   13.62944001760252
C         1.82740019966394    9.02749233586985    9.84638973025272
C         1.05780554291111   10.14303035635110    9.53869116465858
H         1.21469819881453   11.07699139018257   10.06093342928901
C         0.08998034554385   10.05118360313034    8.55605770494135
H        -0.50449350539047   10.91855594790273    8.30793864784822
C        -0.11702981304887    8.85495842330514    7.88623135408255
H        -0.87022605919798    8.79693385034850    7.11439554607466
C         0.63498078941027    7.73672636677164    8.20477978784499
H         0.47244654560994    6.80286362866556    7.68761932711097
C         1.60816622142828    7.82211557417313    9.18308541927732
H         2.20594294337112    6.94641397807358    9.43869274811787

