45
CSD_code = NIFZIL | q = 0 | S = 0 | Stoichiometry = C18H21N2O3Re | MND = 5
Re        2.39805863113059    1.09160067142991    1.70802791453733
O         3.70618180206938    0.17760002709702    2.17090727722722
O         2.52857733089794    2.74496990616120    1.59556222586132
O         1.08138069874387    0.37533288807799    0.96506919529874
N         3.37290224363672    0.65085224179989   -0.78300638778706
N         4.32601764119759   -1.12862152606095   -2.06314039514716
C         1.43985596361669    1.05155104428971    3.68011685273744
C         3.73778694056945   -0.76732030140333   -0.79662103222059
C         2.23347763550959    0.83323705819383   -1.68415622495018
C         2.41442598959736    0.09489342906345   -2.98521573040278
C         1.55596600874635    0.33121848903717   -4.04999273110981
C         1.73387512436325   -0.29043337359469   -5.27501533823167
C         0.81267777761737   -0.01589149779230   -6.42474466692397
C         2.80872515659574   -1.16244428507003   -5.42613175178713
C         3.66357475525844   -1.41923228885833   -4.37564973174111
C         3.46886842679268   -0.80501398163189   -3.14196195496275
C         5.64883457778257   -0.53248684204876   -2.15909287310381
C         5.62231653302420    0.92446957554171   -1.76000252827961
C         6.70755761315124    1.74695308320488   -2.03240260841500
C         6.69899465674530    3.09364860188237   -1.71086831601755
C         7.87314407920183    3.97371425102140   -2.01370987343788
C         5.56175043760645    3.62121000414960   -1.10458023939550
C         4.47959563561335    2.81771342008940   -0.81688927093121
C         4.50074150669753    1.46245646317764   -1.12974367638973
H         0.48282359258792    1.56538479872573    3.62602800077524
H         2.08271445303005    1.55274469006067    4.40050356279169
H         1.28190458923871    0.02027929780371    3.98807242682581
H         4.45355033761977   -0.95939457789356    0.00751310677679
H         2.83582289433251   -1.36095814210277   -0.62332432068067
H         2.09318620820608    1.90104049007964   -1.87172878696291
H         1.33913154270949    0.46578880344234   -1.15562847164687
H         0.73879541619022    1.02597110833979   -3.91367020644732
H         0.54166589311684   -0.94161646156200   -6.92860705401660
H         1.30461268807340    0.62877504227918   -7.15362794840335
H        -0.09391741602616    0.47958908154423   -6.08713113087954
H         2.96708580682498   -1.65031746864427   -6.37694906497831
H         4.48527644579491   -2.10978471461283   -4.49128389148490
H         6.01390002809738   -0.63310287393646   -3.18369011100509
H         6.32521613668211   -1.09115963642432   -1.50043450139222
H         7.57513662410973    1.31544282228344   -2.51257347237855
H         8.12903473590578    4.57860858438072   -1.14585428991333
H         8.74021707124117    3.38331591301378   -2.29870667306264
H         7.63350713094606    4.65166253949256   -2.83297134412586
H         5.53404065404079    4.66942059428826   -0.84650605164750
H         3.61240800108043    3.22283305173289   -0.31218791256453

