35
CSD_code = NIFZAD | q = 0 | S = 0 | Stoichiometry = C11H12CrO9P2 | MND = 9
Cr        0.62763707062617    1.41097758081493    2.23843870138592
O        -1.29327865643336    2.31679052598626    0.15417340962224
O        -0.50398056210000    3.83654069799962    3.54643372010431
O        -1.93074648842788    0.31413110870094    3.29033592632475
O         5.48973696312244    1.11914143661387    1.62593660674211
O         5.97731575144684    1.30704245906159   -0.89230141827264
O         4.61753586852391   -0.61743780205756   -0.01722578012105
O         4.21913855147508   -1.89736631692746    2.28207801450708
O         4.72874455717719   -2.52277240712776    4.72336644792723
O         5.11582555500748   -0.17115142442173    3.92326218355137
P         4.95692571818459    0.89891072786155    0.26032639491186
P         4.19755559022249   -1.43378701796402    3.68977846100330
C        -0.51600369059845    1.96414773039763    0.93254640021965
C        -0.01863785020997    2.90995542704321    3.05881142223450
C        -0.91646941460171    0.70840277267214    2.90298631836333
C         2.59499086958172    1.45388373185712    0.98322410915983
C         2.78876261912572    2.04319808765096    2.23507158083814
C         2.55746353908884    1.29355996702792    3.40759195423991
C         2.12450436499104   -0.03046056083974    3.31334311381898
C         1.66960014383907   -0.51694107350754    2.06704083046812
C         1.91021478555278    0.22103685798254    0.90389410617481
C         3.45138561065101    1.88193581991939   -0.16183273410417
C         2.52818141500198   -1.01515271213269    4.35990893695039
H         3.31467711469516    2.98736990445282    2.30706621011297
H         2.90471882708624    1.67919125132098    4.35876266881334
H         1.33265274977218   -1.54364207425109    1.99176052272999
H         1.75224315002176   -0.23670792778767   -0.06545203708785
H         3.69333919967412    2.94248092424092   -0.15546980638909
H         3.06756422801114    1.59015166424717   -1.13615680912974
H         1.90574316668854   -1.90667453430476    4.38730441555496
H         2.61897470792360   -0.58965882294899    5.35631477313100
H         6.88339353317778    1.09827106390960   -0.66208095155843
H         4.47461871066281   -1.13953650401589    0.80928354122865
H         5.44514376841232   -3.04511873592161    4.36080424855754
H         5.29772853262755    0.33328817445248    3.09357451798760

