77
CSD_code = NIGBEN | q = 0 | S = 0 | Stoichiometry = C39H32Br2OP2Pt | MND = 4
Pt        4.35522124400659    7.41973866172695   10.57410746568384
Br        3.01733110622941    6.07689845217421   12.10510732347425
Br        5.75319030169690    5.52135045379158   10.02089207067631
P         3.04117523017998    9.17412421380329   11.14339596138191
P         5.48625730878402   10.29091433608820   10.05691004709554
O         3.93537095954765   10.08715057633456    8.41965781497433
C         5.48118089401541    8.67888495132967    9.25437102411234
H         6.44283906324194    8.22089515871380    9.02656326484710
C         4.47635028331513    8.95677880202696    8.25264136880870
C         4.04313243162342    8.04984494710554    7.19689182871337
C         4.73057670056316    6.87468218680452    6.88263877691696
H         5.62933525289757    6.60378904002301    7.41313458823974
C         4.25592508153543    6.04179820026260    5.89210018529959
H         4.77986483833390    5.12251592808968    5.67879739306631
C         3.09180084277036    6.35107949860449    5.18762782826770
C         2.41905079854158    7.53583491262242    5.49245747041398
H         1.53139688717916    7.80354014870865    4.93794556973367
C         2.89020818627582    8.37627102532972    6.47501876865507
H         2.37649167384328    9.29561228860897    6.71422678288282
C         2.58778667774190    5.45336812641242    4.14079704987324
C         3.46564332753406    4.84010587246629    3.24906462875728
H         4.52444781275908    5.04148892220798    3.32060301067423
C         2.98935665813318    4.00133792599010    2.25917674465237
H         3.68037336026605    3.53781588900602    1.57034220007269
C         1.63106645256296    3.75400811292387    2.14905836686955
H         1.26053528461899    3.09520041878570    1.37781990715184
C         0.75019049106010    4.35377723060783    3.03351424692173
H        -0.30959668518495    4.15917667874965    2.95586253501263
C         1.22300204913709    5.20024889809525    4.01853308687031
H         0.53282007613489    5.65052327388995    4.71707917323539
C         6.18017511594597   11.60009320773492    9.02821742104696
C         5.44770509300162   12.68035202516820    8.55871786097347
H         4.40386707464056   12.77850144306890    8.81479728546576
C         6.06119955678629   13.61565128344311    7.74415311943537
H         5.49627615741999   14.45977262147361    7.37739465400455
C         7.39371348337971   13.46953836497435    7.39384656343354
H         7.86579270404569   14.20166896240564    6.75604082449213
C         8.12172611276324   12.38323277576145    7.85441007485780
H         9.15824412462647   12.26669647682458    7.57564193825358
C         7.51664924540181   11.44719349892577    8.67101039249766
H         8.07194767973434   10.59567775510235    9.04399958805228
C         6.65327473266532   10.16349799840987   11.45119783566379
C         7.19835348913480   11.33557609425299   11.96961979307910
H         6.98216905363015   12.28045407665685   11.48620529297800
C         8.01231966102332   11.29125405623687   13.08543700218073
H         8.43613554016676   12.20341168018184   13.47901014680454
C         8.27964659042619   10.07719981092865   13.69998076147826
H         8.91395096526134   10.04406517338821   14.57299623798103
C         7.73041740623622    8.90949317991313   13.19775245252956
H         7.92986168604527    7.96298556069779   13.67639358903651
C         6.91800461149611    8.95110695388412   12.07777793960858
H         6.48817773364223    8.02527765636522   11.69931090000825
C         3.97095800371638   10.78447102669722   10.96097081830041
H         3.39640734024688   11.50720402461535   10.38159539534267
H         4.24106759013457   11.19090576520028   11.93962021290746
C         2.43034882563897    9.33165755195014   12.84338531340412
C         1.08349724848181    9.23625342630563   13.16887900076098
H         0.34568435653974    9.11400617909809   12.38872000532740
C         0.69428059720742    9.28278044361424   14.49590861409012
H        -0.35296563684706    9.20741225434278   14.74794292102025
C         1.64152656186732    9.40844908292968   15.49755581262339
H         1.33279932740061    9.43490046812527   16.53176032226397
C         2.98829027486277    9.47973580280394   15.17649339420913
H         3.72986897358859    9.55544988259751   15.95783639083331
C         3.38336274569564    9.43590663888391   13.85450435030952
H         4.43731228792129    9.45741642688135   13.60007089107348
C         1.58143884556121    9.34832233237753   10.09232794508467
C         0.81392814814669   10.50829330443598   10.05718648546813
H         1.07109025311862   11.34932802143089   10.68796888068626
C        -0.28514581352813   10.57443787628275    9.22221759804304
H        -0.88171823306379   11.47466231014735    9.18988234486338
C        -0.62533961748850    9.48884755116281    8.42846954064988
H        -1.48436843477734    9.55020215798569    7.77671748219547
C         0.12965858436372    8.32907445295884    8.47214994567872
H        -0.13559979605324    7.48179790086859    7.85798812986565
C         1.23281246594039    8.25832284405903    9.30331711298648
H         1.83307269445184    7.35410648720186    9.34298293483629

