43
CSD_code = NIGFUH | q = 0 | S = 0 | Stoichiometry = C16H20ClIrN2O3 | MND = 8
Ir        2.68192113211622    4.65928141716379    3.34916275184122
Cl        4.58815991129404    3.50386835293882    3.96335303897963
O         3.06887997306794    5.91894661899008    5.12492798163820
O         6.29224563100766    8.23059822342657    0.66692343923251
O         7.39308843614706    9.25605862214607    2.19587073326101
N         3.99812453914169    6.25662351259440    3.16869473771881
N         6.51332145470944    8.49926211887504    1.83571889057248
C         1.94256140190586    3.75077446843240    1.53376805777216
C         1.16154425786268    4.95693960063833    1.71557574197741
C         0.47807828622056    4.84696275097058    2.94690326354816
C         0.78821468610337    3.55071857178287    3.52316583978971
C         1.62550776991964    2.85007431734958    2.61486423252268
C         2.68901847609995    3.36226976571842    0.29984296064885
C         1.05189339033562    6.06325893010797    0.72030649716693
C        -0.50726200100935    5.80448976460864    3.52694623421009
C         0.14364014700737    2.99872780473344    4.75198039610082
C         2.07348969466138    1.42876018722794    2.69651981108435
C         3.93340280876440    6.59331102380308    4.49847187768046
C         4.77988883723166    7.59863644669294    5.00733912150528
C         5.66391863256393    8.25707838928448    4.18619810563341
C         5.67801996263192    7.88632674320267    2.81392899266009
C         4.83895651469725    6.87021581098220    2.36824713294023
C         6.54861530289576    9.31573465892149    4.74625360211141
H         3.07004207527059    4.23575113274310   -0.22231485564573
H         2.02590765187990    2.82111677997174   -0.37743952875054
H         3.52525798595888    2.71531120393545    0.55244753705993
H         0.76264117001356    6.99695340805678    1.19573181901827
H         0.29662167014407    5.80880175393759   -0.02489770207311
H         1.99567929135724    6.21878016230712    0.20328330164210
H        -0.30337114408504    5.97283587123885    4.58270697327789
H        -1.51430352812270    5.39414006804476    3.43979710558060
H        -0.47839019812587    6.76126804151844    3.01279215043031
H         0.73982198128773    2.19474938396953    5.17485751311749
H        -0.84687627165800    2.61035413874764    4.50790394893504
H         0.02945358067610    3.77336194971173    5.50634070918105
H         3.13885535659055    1.37833714682745    2.92111717265370
H         1.90206354815303    0.93409288250712    1.74174185342215
H         1.53370492682524    0.89623412794460    3.47409886695341
H         4.71966740199594    7.82709953133586    6.05888126537017
H         4.87444615029756    6.56795972440855    1.32970679905700
H         6.43311213610508   10.24889550186670    4.19788732567471
H         7.59277911261018    9.02424227161529    4.64600901435788
H         6.32085785739200    9.48089681881116    5.79578529010593

