44
CSD_code = NIGGAO | q = 0 | S = 0 | Stoichiometry = C17H20ClF3IrNO | MND = 8
Ir        2.29313662746575    5.54812931780853    2.77745470638492
Cl        0.19316909179476    6.46892975159285    2.48287869464104
F         0.33221075994317    1.77965458294999   -1.20946754102284
F         0.21333319105378   -0.02582927000173   -0.05839348025069
F        -1.53348832415398    1.19617223141780   -0.32327338783104
O         1.35000700066083    4.23283614509749    4.24880876889078
N         1.36169731240306    3.80448097417541    2.10123452202760
C         4.43195476975818    5.69834907332442    3.45417961560034
C         3.72400751588463    6.94465655862729    3.67418407443897
C         3.34542309870910    7.46820181948228    2.40546440610122
C         3.69326730115696    6.48911419825328    1.41072388978763
C         4.42810204415405    5.42736054621882    2.06756552644814
C         5.12703007432654    4.93285389706691    4.52912488268840
C         3.63791650154350    7.65301107686282    4.98678608393680
C         2.73836710632678    8.80347738629226    2.12742629374642
C         3.58185323398241    6.69865285104955   -0.06477927997632
C         5.13321165680982    4.31280104180105    1.36821773647522
C         0.90728614180254    3.46380645978768    3.34347814450960
C         0.04651041491362    2.35967446708635    3.50188500475592
C        -0.33833049420460    1.62592229285049    2.40647322382909
C         0.15204474524097    2.02148216058507    1.13748010708204
C         0.98268086318141    3.12053084504500    1.03528598971608
C        -1.25472780478708    0.45600062980896    2.55107785460846
C        -0.20875528953491    1.25787088243041   -0.09778079449964
H         5.96541551098682    5.51629361807328    4.91257985644442
H         4.44847527273613    4.73445933117142    5.35713139133559
H         5.50543013972260    3.98425809323219    4.15804055718876
H         2.79589534714201    8.33995322359157    4.99836905548374
H         3.51110379371152    6.94100284814829    5.79856649493164
H         4.55501234984525    8.21789212364385    5.16573039903819
H         1.65790501072890    8.71224671691322    2.00941948589373
H         2.93681213148411    9.49085879258636    2.94552910133965
H         3.14897321611045    9.21516471618532    1.20767587103449
H         4.40456857327786    7.32609541310584   -0.41238138224865
H         3.62479563927131    5.75413211960265   -0.60034216639575
H         2.64485779035203    7.19382106277729   -0.30709999649302
H         5.26949339463224    3.45782872650254    2.02551350728950
H         4.57615126933092    3.98658558397625    0.49318256067529
H         6.11603712366422    4.65208744693724    1.03683185453204
H        -0.30547017862747    2.12100306212291    4.49188761842593
H         1.35347961169068    3.45449767010969    0.07597866073992
H        -0.79957097814700   -0.44366859231284    2.14039530629585
H        -1.48877290906713    0.28611952708187    3.59798066286977
H        -2.18239964728246    0.63492859693929    2.00937611953703

