44
CSD_code = NIGGES | q = 0 | S = 0 | Stoichiometry = C17H21ClIrNO3 | MND = 8
Ir        0.76587641165358    1.09863640334593    3.29615804223504
Cl        2.41661143325708    1.01821444468317    1.67633282977655
O         2.33032742059133    0.58372469277505    4.73643237310450
O         2.18921879922059   -5.53537898614462    3.38793609606126
O         0.48790924879015   -4.65468548668017    2.21865326583870
N         1.24714443641143   -0.90196959663193    3.55093565355602
C        -1.45371635327634    1.23962136370753    3.66365507851274
C        -1.10102230733706    1.56734034979696    2.29927176368137
C        -0.31921538124691    2.77848880681874    2.32306370263790
C        -0.06968701978641    3.10184973276097    3.68298308847764
C        -0.79856070476025    2.16098384769760    4.51215986115495
C        -2.41290909983044    0.17050691587488    4.07101918196159
C        -1.69622816355343    0.96883744100920    1.06580039329717
C         0.09045530448470    3.55249422555064    1.11379047294602
C         0.62866116432355    4.31830767498295    4.19734866499159
C        -0.91830788236551    2.27166820464345    5.99499045302194
C         2.26084274689586   -0.64578220843047    4.43232300535682
C         3.07859779630997   -1.69926984684737    4.89711335470713
C         2.82656566280839   -2.96387640655277    4.44530655508022
C         1.78000454311626   -3.20060859322779    3.53150300307994
C         1.02238736414836   -2.12367014182213    3.09876166339344
C         1.53607961023553   -4.57440729165738    3.06049476073659
C         0.21029560345294   -5.95085011956781    1.71107483975562
H        -2.35349834311020   -0.68300807717643    3.40001188187888
H        -3.43165809572148    0.56011661122067    4.03517478910157
H        -2.21397462957982   -0.17433202633325    5.08261043978187
H        -0.98033663158184    1.00050404335546    0.24838669698431
H        -2.58280200480914    1.53316805660911    0.77122206185994
H        -1.98919851578319   -0.06430395738804    1.23186036904696
H         0.43157209088756    4.54633292669359    1.38909654657522
H        -0.75175350714654    3.64202008872817    0.42970200351643
H         0.90150931853110    3.04218266793073    0.59381958940930
H         1.12950546117241    4.10335631476621    5.13798447485853
H        -0.09457390008306    5.11770027130435    4.36901329364167
H         1.37258890675484    4.66663222929461    3.48610996137595
H        -1.39041456059335    1.39021925097496    6.42026380684511
H        -1.51873045753843    3.14545625793513    6.25244202172370
H         0.06287586585139    2.39158151685839    6.45050322815510
H         3.87913569775470   -1.47430265328533    5.58184757839885
H         3.42031755543987   -3.80635129942710    4.76700203211877
H         0.22473506765277   -2.25532014833082    2.38154469904569
H         1.05613959136665   -6.31861464247401    1.12672981715463
H        -0.67142356155688   -5.84940015979228    1.08357152944017
H         0.02215401855208   -6.64791269755311    2.53039507572024

