49
CSD_code = NIGPUO | q = 0 | S = 0 | Stoichiometry = C26H16N4O2Os | MND = 6
Os        3.42935359522523    1.96149618072521    1.68449461597489
O         2.36042616644309    2.47548125702047    2.76751337591148
O         4.42643153744179    1.70370767838726    0.45172136368306
N         5.59863705069871    1.30462025349055    3.84184211719184
N         2.25837748031000   -0.93936601520654    1.60330805652720
N         1.95087435993805    3.01232675656969    0.02165442678470
N         3.95109543274325    4.34115165972488    1.33984674594760
C         4.78457804419939    1.47028980717216    3.05777860871649
C         2.73557284518623    0.09527862531079    1.68624264147496
C         0.98424037081079    2.36735583858926   -0.59177071036607
C         0.11813508608725    2.98006037790323   -1.49506635221697
C         0.26569756116170    4.32486888800575   -1.77687616351515
C        -0.68457652245192    4.99019529806504   -2.68149232919324
C        -0.91966157278818    4.46698553133510   -3.95005372080862
C        -1.82960331393553    5.07269745291822   -4.79678511675408
C        -2.52650726503043    6.19526031272236   -4.38112717143302
C        -2.31075198835302    6.71100366972239   -3.11383936147952
C        -1.39288473739143    6.11615799049017   -2.26780460282875
C         1.33621641606221    5.02033094620502   -1.16179124713197
C         1.63033881844364    6.38272715015039   -1.44831888383379
C         2.66216761187993    7.02071475833448   -0.84709045621118
C         3.49248892850464    6.35530342833037    0.09761046617327
C         4.57049405927430    6.99988567166518    0.75342886835945
C         4.96943485870946    8.37983882410374    0.43524788825091
C         5.30034664496674    8.74389056415542   -0.86789974742134
C         5.70883236435290   10.03511151757147   -1.14741456333479
C         5.78381837610950   10.97688127216065   -0.13447419234905
C         5.46098014355168   10.62009249708107    1.16436551760486
C         5.06426480361579    9.32694124248202    1.45117224625955
C         5.26388374235564    6.28964008515335    1.71478094764106
C         4.91918764740629    4.96445557467030    1.97301254889685
C         3.22773506603064    5.00392132939768    0.42208604623166
C         2.15118398267749    4.31336987434356   -0.24652676705300
H         0.87849950062110    1.31771821358703   -0.35024733378662
H        -0.67867888658903    2.41110496676490   -1.94820474781525
H        -0.37063602308839    3.59530128552343   -4.27520505979731
H        -1.99817423721899    4.66509627293814   -5.78222445638070
H        -3.24019635042748    6.66432637082556   -5.04133598661760
H        -2.86025078426626    7.57913938116443   -2.78164867665526
H        -1.24125038241053    6.50603252044752   -1.27143193554018
H         1.01758895987811    6.89939409494538   -2.17099532841606
H         2.86399457339612    8.05770081905384   -1.06756342126365
H         5.26248075645605    8.00422598649543   -1.65483398158293
H         5.97087265482015   10.30610652036084   -2.15927658310976
H         6.09824418587493   11.98546212673588   -0.35625055072791
H         5.52177392648244   11.35026271786296    1.95731275662153
H         4.80607391505567    9.04857647902277    2.46252404870577
H         6.08543336361730    6.74601718423894    2.24463445769800
H         5.45821723356526    4.38765876128556    2.71327170296951

