35
CSD_code = NIGSUU | q = 0 | S = 0 | Stoichiometry = C18H13BrN2Ni | MND = 4
Br       -0.47656653100129    7.22011596534646    9.22241041781579
Ni       -0.40706211536883    5.38786559364443    7.88409357527916
N        -2.33732089117939    5.18290913589773    7.69680015734075
N         1.42872755732994    5.43933920436040    7.93862404949853
C         2.10301846904562    6.21333797767529    7.08714698589333
H         1.52570528706463    6.71415357964515    6.31776978247972
C         3.47043381938204    6.39495302566382    7.17279441418052
H         3.97018427788689    7.03547704708784    6.46365653475135
C         4.17404088587577    5.75080287868988    8.17823733979701
H         5.24171019294049    5.87411193476910    8.27306226204183
C         3.47006915664414    4.94747492304493    9.06104054868073
H         3.96974542449313    4.42856798777187    9.86361152020306
C         2.10249007997706    4.81700540172860    8.90683875398583
H         1.52520623474602    4.20175538954982    9.58777707443830
C        -3.32231509198355    5.90511347826888    8.20548609254499
H        -3.05853346109712    6.74485634997527    8.83446670699992
C        -4.66858246725231    5.62557165888834    7.96267990782172
H        -5.41981203432770    6.25686233218045    8.41016598112706
C        -5.01727113685375    4.56155311337814    7.16531912623267
H        -6.05236060942782    4.32616437297739    6.96279589328442
C        -3.99794952237103    3.77472388439853    6.61181318092081
C        -4.21817538389213    2.64464105599039    5.77220096748685
H        -5.23932523795848    2.37572239399650    5.54272951906360
C        -3.18129546529009    1.92558284113975    5.27559680021395
H        -3.36492058664489    1.06981455665468    4.64079842633308
C        -1.82721082941165    2.26297366659262    5.56609818299945
C        -0.72468269871924    1.54710315284923    5.08025058554849
H        -0.88257575453657    0.68609365025152    4.44631731069775
C         0.54434932671972    1.94826198504363    5.41682187049095
H         1.39751289535610    1.39672333746046    5.04526499658545
C         0.77129433057922    3.06280520975260    6.23506059631271
H         1.80347787768083    3.31393954250772    6.45304343473230
C        -0.27674817254042    3.81146047693206    6.74492642331113
C        -1.57836391810440    3.37910905117834    6.38952371751973
C        -2.66769390777468    4.12935384471299    6.90997686338125

