61
CSD_code = NIGVOO | q = 1 | S = 0 | Stoichiometry = C27H29ClN2PPd(1+) | MND = 4
Pd        3.55868918897926    5.48536480270278   10.73522808936422
Cl        4.49342055227610    7.52249280600616   12.45273294831317
P         2.29647182924161    7.32325839255529   10.39681667785863
N         4.58836134505756    3.64461214667390   10.87523952802253
N         1.86514834906164    5.07614860743664   12.32102862000751
C         3.96377909228742    2.77914707676302    9.86477602763105
C         4.52422031374114    2.96900438123180   12.17185801039738
C         5.98822499522889    3.92877181558385   10.46982217179902
C         6.77518862978417    4.62419824756579   11.58346215288793
C         5.93545941832316    4.87700525385724    9.29126532298990
C         6.94927572295164    4.91729422724157    8.29675203353921
C         8.06214121244532    4.04698889225055    8.28211515454814
C         9.00003111988689    4.12147414253724    7.29017699555522
C         8.88283170623774    5.06880644502135    6.26255173366728
C         7.82528798251007    5.93238129680191    6.25071289319643
C         6.83938000201218    5.88296537856899    7.25906984398544
C         5.75201782538049    6.77779554162313    7.25884871687319
C         4.79322398401186    6.72373562603811    8.23385933371275
C         4.88442328143402    5.76833207579376    9.25520495773450
C         1.26665705384208    6.29963680253817   12.76483522445927
C         0.64541021014559    6.38731175537173   14.00312192720351
C         0.06553326168915    7.57750401883101   14.40652200088984
C         0.09522297908917    8.68642083237360   13.57651391231425
C         0.72947834693488    8.61256269533936   12.35014598922008
C         1.32205179886922    7.42479391004280   11.93880472878111
C         1.04087389245080    7.58934602187224    9.09679998979716
C         3.25295381665331    8.86345470882101   10.49480048252712
C         3.07583537757435    9.96793554911265    9.66781612671263
C         3.88609995085714   11.08133688595586    9.80731462921770
C         4.88659641363446   11.10186919977619   10.76525503337945
C         5.08813596083291   10.00746284616048   11.59121219422087
C         4.27452229460766    8.89980429914722   11.44578110928815
H         2.89678100653616    2.66175736376390   10.07706908825837
H         4.07977172356763    3.21621993603664    8.87067143573713
H         4.42940188658160    1.78520169736424    9.86575270319218
H         3.51257931703404    2.59419803631402   12.33945319115113
H         5.20721666340261    2.11121103610294   12.20105190406245
H         4.78496833577246    3.65654682334782   12.97815925299409
H         6.47616463698499    2.97652772587924   10.21686189307610
H         7.00998205886938    3.95387810108843   12.40610432434342
H         7.71072944318924    4.99704181868379   11.17379954712281
H         6.20463817659089    5.47931600724610   11.95485960117001
H         8.18385853387253    3.31300212879636    9.06328807518451
H         9.84238129005524    3.44642937544808    7.29438568032589
H         9.63294953735186    5.10924285866682    5.48800547537740
H         7.72457575964619    6.66966233482758    5.46805526214811
H         5.68595920530994    7.51426681568337    6.47141734966711
H         3.97119553954565    7.43143471099302    8.21083243556747
H         0.61797453486356    5.52545303143764   14.65521918282158
H        -0.41314652557468    7.63632213222197   15.37125910888778
H        -0.36185184402703    9.61043297994111   13.89199071913672
H         0.78748408991319    9.48384174056702   11.71318889963090
H         0.44724288603513    8.47538871385130    9.32109717487180
H         1.51503943590272    7.68869753894829    8.12158064810192
H         0.38410638257047    6.71869010239328    9.07229538248372
H         2.30389660056137    9.96012142481524    8.91314620354000
H         3.73664375160797   11.93504285345896    9.16492092347900
H         5.51611187578495   11.97109047582449   10.87115563783996
H         5.86707625422966   10.01310029353544   12.33662405006958
H         1.24547525482537    4.60971455147432   11.64950012885927
H         1.99564628096847    4.44835070969900   13.11461016081431

