70
CSD_code = NIGYOU | q = 0 | S = 0 | Stoichiometry = C33H26ClF5NO2PPd | MND = 4
Pd        2.96816444295494    7.85439957947041    6.11715312814353
Cl        2.28125580444048    9.90987113587435    6.74162619697778
F         7.71335969519164    4.69462461071336    4.30083717016252
F         8.54347275928667    5.16581469195569    1.77205606094664
F         7.47474941274527    7.23419617918213    0.34213567538387
F         5.57527328525197    8.82417277632670    1.48709658519221
F         4.73051922145425    8.34250263064643    4.00994522695980
N         5.07817472271759    8.28728657710039    6.78411807525951
O         6.68954950030924    4.83701680396825    8.62538271636593
O         2.25398450092139    6.29620535146351    8.39985775566758
P         3.82639501974696    5.88290971818545    5.55266951193831
C         5.39048429038284    9.39923263120261    7.43946830772856
H         4.55823970144745   10.05767289191282    7.66644632906080
C         6.69164881732920    9.72128828502121    7.78568427100407
H         6.90195786661332   10.64315148510819    8.30315287320908
C         7.70532895073983    8.83865148907973    7.45022976792609
H         8.73388738963849    9.05171207284982    7.70205537824714
C         7.37550319311043    7.67947930943977    6.77027412035446
H         8.13474959119381    6.96896022458562    6.47864735108465
C         6.04289824632727    7.43712640258846    6.45180639407974
C         5.70903284172646    6.22240678929568    5.61314391438873
H         6.22015605492845    5.34247897089697    6.02063190956838
C         6.20313961289564    6.50282048521267    4.22778992415044
C         7.17946384028761    5.71810931260499    3.61969283478969
C         7.61485604679615    5.95168276681827    2.32095253608715
C         7.07377016764711    7.00569311527134    1.59278620973126
C         6.10578934006682    7.81719746075934    2.17950587495296
C         5.68712155138457    7.56207241500676    3.47845530648068
C         3.69129953663747    4.35895057618208    6.53033312750703
C         3.12133914767835    3.20449702399630    5.99945922547540
H         2.73784044526619    3.21015129444671    4.98944216967349
C         3.03703322893200    2.05179842218119    6.75731901701364
H         2.59864713067964    1.16110644515297    6.33227754730339
C         3.51577565691131    2.04160468405944    8.05700757068607
H         3.46799974865439    1.13738418280007    8.64540622249831
C         4.02220259238913    3.20195555602923    8.61316348701999
H         4.35112560307775    3.21411924834054    9.64185902800253
C         4.09007749419867    4.37363219726031    7.87040476338518
C         4.49309243677365    5.62509975954337    8.54762582397290
C         5.80002801566079    5.80212926181627    9.01039442987087
C         6.11939997778991    6.91179004477567    9.78339667843382
H         7.11822392325806    7.05985590040132   10.16029603952313
C         5.13625380642129    7.84190210801937   10.07235634761875
H         5.38844883626411    8.70225553209508   10.67397412359562
C         3.84126202695904    7.69630160030477    9.61202465088345
H         3.10720720672017    8.45034882986909    9.84363682130023
C         3.50632732487703    6.58058192544539    8.84490721748016
C         7.99242915406493    4.87650076756050    9.15461833922915
H         8.52862172703065    5.77957420288401    8.84544467873496
H         8.49888313505176    4.00122731330527    8.75057157719649
H         7.98381263180940    4.81805699786560   10.24729646576303
C         1.19236725162894    7.13536966887444    8.83284784971159
H         1.13437364679725    7.15563552917602    9.92572745537145
H         0.28809074647342    6.68407500551788    8.42752980573507
H         1.30787727901007    8.15370713667274    8.43737588306251
C         3.76317615643728    5.27332084032132    3.83141090420642
C         4.49407686935869    4.16483292326971    3.40537170900407
H         5.05409546504843    3.57877013714313    4.12122572859297
C         4.50361795577516    3.81516849958933    2.06836301097923
H         5.07052283300282    2.95515230584270    1.74335998840809
C         3.79304384199548    4.56747882512220    1.14471019846669
H         3.80667325323520    4.29067095097225    0.10121242923227
C         3.06973670462339    5.67200774634210    1.56096611120122
H         2.51952582668229    6.26149122987501    0.84306196529170
C         3.05747513731559    6.02603248978861    2.89979827456610
H         2.51038083905069    6.89911817092522    3.23614617916170
C         1.06445385957890    7.54074854155720    5.39906308102314
H         0.85897213586200    6.48105452712665    5.20791283318085
H         0.96508057913274    8.11297115016049    4.46713960615602
H         0.32750296435197    7.92393428481813    6.10876022863132

