55
CSD_code = NIHCAL | q = 0 | S = 0 | Stoichiometry = C19H31Cl2IrN2 | MND = 8
Ir        5.96426573137194    4.25124318417915   -0.47939955054193
Cl        7.61021694847615    5.87081044527994   -0.95173937439501
N         6.72607533829284    5.32844177849110    2.28157380574639
C         3.71791126151463    4.25093361338251   -0.18721661247648
C         4.11080970415926    3.09950209866423   -0.93365399747018
C         4.62836580149911    3.54983480364401   -2.20811456516158
C         2.91677683941224    4.25092075219969    1.08137697679823
C         3.76198487897591    1.67605718197703   -0.63703082286741
C         4.99413090137590    2.62464166118912   -3.32122632206140
C         6.52135177869392    4.25092191327207    1.48854621911702
C         7.08278173423285    4.92611850725940    3.53742081579584
C         6.54172261670371    6.72836744339610    1.93965451258222
C         5.45920744621555    7.33688029018383    2.82956090226711
C         7.86496502381795    7.47749197731479    2.04997417089344
H         3.54725900772201    4.25082923160824    1.97086831227817
H         2.28024003166455    3.36898679490903    1.11883747373521
H         4.56712875529551    1.01363769910091   -0.94871174175113
H         3.57773988362653    1.52531618059223    0.42360325606055
H         2.86239092493520    1.39293463569457   -1.18847981852131
H         5.80625542465292    1.96401727207757   -3.01577699928028
H         4.13575020878952    2.00713583490814   -3.59025742943559
H         5.31966648856790    3.17558667303372   -4.19993390735623
H         7.30609226190330    5.61404028560018    4.32514469168004
H         6.21971572774607    6.75547928551937    0.89698726000748
H         5.21746177571359    8.33442620254049    2.47430612927720
H         4.55648921696191    6.73036900855210    2.80247849893109
H         5.79199419438367    7.41496292599842    3.86194120259456
H         8.27025124895901    7.42714929462503    3.05769714198175
H         8.57634127646119    7.04647300794719    1.35171245852548
H         7.71522984714580    8.51973848769434    1.78521899627435
N         6.72608770789104    3.17338687129161    2.28156692959053
C         7.08282205195511    3.57570470182180    3.53740677101335
C         6.54168554284757    1.77345620143217    1.93968994486862
C         5.45917246186793    1.16498796473668    2.82959215655917
C         7.86492630132781    1.02432776349655    2.04988397978550
H         7.30616586624898    2.88778222997793    4.32512140743960
H         6.21959052138827    1.74631058668461    0.89706602634367
H         5.21757461623718    0.16736615445455    2.47445425410904
H         4.55639647132263    1.77141040688391    2.80235386824421
H         5.79193913402289    1.08711644900157    3.86199010433722
H         8.27017774351328    1.07450321340313    3.05762324559406
H         8.57631887560293    1.45544927821540    1.35170493882580
H         7.71517309782961   -0.01786470909137    1.78493716416001
C         4.11066948811136    5.40235064024375   -0.93372209706753
C         4.62827480381657    4.95198963692475   -2.20815742582503
C         3.76195174707597    6.82580314590277   -0.63708295664206
C         4.99406705704178    5.87714825096161   -3.32126836555371
H         2.28036193439035    5.13293674612332    1.11893404584144
H         4.56715504973649    7.48816828204992   -0.94873157995265
H         3.57767728993476    6.97654669750823    0.42354582823278
H         2.86240252821123    7.10896196993483   -1.18857674795817
H         5.80616023820810    6.53778007523861   -3.01583084442241
H         4.13570817255433    6.49461596103807   -3.59032659084473
H         5.31963093687409    5.32620797923780   -4.19992453062294
Cl        7.61033808271942    2.63130503169354   -0.95211120928405

