31
CSD_code = NIHGAO | q = 0 | S = 0 | Stoichiometry = C14H11BrN2PdS2 | MND = 4
Pd        0.61612186896521   12.86716257560740    4.88570983790456
Br        0.69675592054721   10.51011502981816    4.36813232324137
S         2.47068546946798   12.61336197525687    9.15888731040198
S        -1.30815081170361   14.29711627562901    0.88351539396174
C         0.66836161257667   14.78570885793791    5.25214114404937
C         0.22153656948310   15.68431594100722    4.28485575385270
C         0.30199934780576   17.05326554705849    4.52817729143328
H        -0.04082199929281   17.76282556443513    3.78949895542397
C         0.83024063793945   17.49907278579882    5.73042056527229
H         0.89191773239124   18.56079594954902    5.91832337129597
C         1.28432164922424   16.61263926061697    6.69542779214350
H         1.69628366837016   16.98352557746130    7.62244205913887
C         1.20578822995991   15.24324372057334    6.45403048750993
C         1.62860488675358   14.16084349273973    7.32776601227781
C         2.17194149318390   14.20109385058334    8.57268467248408
H         2.40769585669101   15.05788382451263    9.16876531978468
C         1.84085779479468   11.95826242394769    7.67783163660590
C         1.79344994712406   10.49259406380831    7.49546714487580
H         0.78106416666173   10.17106054800280    7.24774581391921
H         2.12458825671066    9.98990974133813    8.39976122522760
H         2.42900712547639   10.19131699816464    6.66139634490180
C        -0.29594545147520   15.02105739950879    3.09905642330801
C        -0.82964880507867   15.54481102803406    1.96435008518074
H        -0.96821299122177   16.57419573339463    1.70720519111914
C        -0.75883862587807   13.10929713678457    2.02666067937012
C        -0.89712383872157   11.67364887994742    1.70501483431483
H        -1.43744221879378   11.15576235290259    2.49850404582809
H         0.08403838916772   11.20149324547096    1.63651221366314
H        -1.42336901673618   11.54760321339512    0.76296167235680
N        -0.26168285861718   13.63272076245948    3.10953263599878
N         1.45207599421934   12.87329624425704    6.83792176315436

