136
CSD_code = NIHJIY | q = 0 | S = 0 | Stoichiometry = C77H16F35N7Zn | MND = 4
N         6.90836195940618    1.60654615101507    4.20007083234760
N         5.07181677563943    2.81220536011588    2.44682077452756
N         7.40523024943761    3.83172068458825    1.18997287540657
N         8.27860942057973    4.15184618497325    3.74494041677353
N         8.05130798452941    3.74529483759335    8.01016876430025
H         8.90938476307978    3.28994661323939    7.73326775855823
N        10.06533737100813    2.05473543439370    9.03284446763728
N        10.44786046348731    0.93307495728358    6.55248117243317
H         9.83082595140172    1.49277198561799    7.13291094297710
C         7.96112270831295    1.11611448160238    4.91724355371900
C         7.46746026031050    0.59373419364272    6.17215858965856
H         8.05656780442983    0.13982990586842    6.94373243980867
C         6.11881267182016    0.65884179239908    6.11362103978043
H         5.41754722931383    0.33575530019607    6.85767607590337
C         5.77457341547162    1.27454080786946    4.85342796774735
C         4.47718045087229    1.39708220160281    4.33081048613368
C         4.17464074304080    2.07855102908010    3.13998921716983
C         2.93412416739556    2.02772448211552    2.40675806175065
H         2.04334861451344    1.51950194246520    2.71805163788063
C         3.12870102285709    2.70859496562269    1.25401758093409
H         2.42540224072068    2.84783050703237    0.45688538408776
C         4.49173207270943    3.18326155096482    1.26625285818597
C         5.15973844145482    3.80706128862727    0.22040769871291
C         6.53767526514291    4.14295660658796    0.20190711367375
C         7.20482400105977    4.93722274919129   -0.78009284336409
H         6.76616392955351    5.34591115127719   -1.66875941510267
C         8.48804817246996    5.10242754901549   -0.34970622433770
H         9.25867568868772    5.67620016494268   -0.82564175868328
C         8.59536552400361    4.42606081331103    0.90334960906579
C         9.67567574465058    4.49618338537152    1.81124204600050
C         9.52195798643133    4.28422792923348    3.18689097344105
C        10.48163173111499    4.38652128605340    4.24509571895776
H        11.54459155443626    4.46031282486478    4.13093565597339
C         9.78785741518127    4.37361944095570    5.42046504109457
H        10.19571744106469    4.50095199737514    6.40373040948589
C         8.40558954438701    4.28183650435431    5.07360377796615
C         7.22908121247221    4.54311602864148    5.84855153915445
C         7.13766112286058    4.38013001890500    7.21625524089581
C         6.11180395492901    4.86919602174607    8.09651668353062
H         5.25556934789768    5.43447127942700    7.78812672484619
C         6.44092498950702    4.53032188749304    9.36549404166274
H         5.88208269010823    4.74665094077234   10.25400103684212
C         7.68372647601596    3.81538816744874    9.32273969156471
C         8.41192844682360    3.27787427078846   10.36497714732701
C         9.61229907542985    2.52922340843916   10.19360685654145
C        10.51354018617478    2.20527521443269   11.28037030268902
H        10.38611663480887    2.49325987884027   12.30516107921122
C        11.53492831774130    1.51393101203569   10.73316496369837
H        12.38894118280791    1.09597714069327   11.22780553208266
C        11.24152251652126    1.40200923936154    9.32068936753579
C        11.98429496974574    0.66512717586278    8.41534223538726
C        11.60194590885936    0.43206152117320    7.07625015239011
C        12.24955593887365   -0.28859505371822    6.05859098712727
H        13.18154502480359   -0.81008356174974    6.14359189419497
C        11.46148625704779   -0.19816742563914    4.93054118919541
H        11.65381466353919   -0.66181694768526    3.98350122388728
C        10.33396833946772    0.58046373062706    5.24933988511117
C         9.23902586681464    0.94908073441050    4.39839839878944
C         3.41197215505523    0.61185735029749    4.98578230026238
C         2.21029578575970    1.17492432443231    5.41558155257139
C         1.21041485081616    0.41373553804514    6.01281239466529
C         1.39269983644381   -0.95411095753085    6.19071275155604
C         2.57856085114154   -1.54450667861942    5.76232657878131
C         3.56512464451168   -0.76586639650627    5.16909845225723
C         4.37340653986792    4.17222468404228   -0.97663432994225
C         3.29456075210395    5.05129221654016   -0.88486647420874
C         2.54932529697256    5.41318212802692   -2.00179506652702
C         2.87890090217980    4.88708077811146   -3.24865320877400
C         3.95207720459594    4.00699772390397   -3.36504928160987
C         4.68722321476434    3.66163233378643   -2.23578824460813
C        10.96113752938487    4.98581043092323    1.28289526023938
C        11.66645805244633    6.03748745174870    1.87471995186888
C        12.87922395937720    6.48632802351459    1.36085198855142
C        13.41764437764964    5.89737384560125    0.22070687590898
C        12.71662018061783    4.87451263353372   -0.41278918536265
C        11.50415674690531    4.44573232965207    0.11306969085765
C         6.11403149515246    5.13826807163993    5.09078512116208
C         4.78412369754211    4.72656925008644    5.22363817483328
C         3.75164548676339    5.31414550572440    4.49994562769370
C         4.02959256355400    6.32151838778574    3.58042698536672
C         5.34399489735832    6.74812166293164    3.41995637968719
C         6.35560452087373    6.17834764795632    4.18063934106816
C         7.94828565140711    3.50544828571567   11.74555123952184
C         7.68465494114716    2.43638984573167   12.60329766471217
C         7.26766484496681    2.63401625539853   13.91435768543209
C         7.10476215570492    3.92947015321908   14.39934400480708
C         7.36053195454208    5.01332446215533   13.56328031817944
C         7.77662197253804    4.79279270217415   12.25528346579439
C        13.24282734271142    0.04138214973695    8.87443495144797
C        13.39778398976486   -1.34327460149892    8.89178769612499
C        14.57718302838198   -1.93934585812601    9.32577383311537
C        15.63777261190712   -1.14243764536418    9.74962038000299
C        15.50664015090875    0.24400218729187    9.73702664280351
C        14.31665199644979    0.81917936500168    9.30383546463692
C         9.52145976331981    0.97652576007378    2.96134080118822
C        10.77139083549304    1.39839197401503    2.47831623826936
C        11.15705956904587    1.25460983442542    1.15524464333234
C        10.27698540293902    0.71896877217532    0.21895697026178
C         9.00943310522117    0.34096849525506    0.64951735742598
C         8.65335609948259    0.45343230327665    1.98944607339925
F         2.00744719611518    2.48215423377505    5.27145823789316
F         0.07972152612699    0.99303871218382    6.41784370343998
F         0.44224171372217   -1.69162668701980    6.76158350184907
F         2.76281953861555   -2.85670343824172    5.91610098158051
F         4.67514640247167   -1.37446647207854    4.74106109929069
F         2.98284001440510    5.57675035921644    0.30140614186275
F         1.52631465746599    6.25841086082599   -1.88587741008834
F         2.17142531292793    5.22394556024691   -4.32437678158488
F         4.26859790399380    3.49894464866393   -4.55561316509884
F         5.70079053111000    2.80397040942357   -2.36255032132024
F        11.16217170141229    6.68278997342858    2.92703392608114
F        13.52158304478568    7.49065679026724    1.95666121859828
F        14.57842701907702    6.32110713085732   -0.26985111554362
F        13.19991938681871    4.32126086393687   -1.52177582897914
F        10.85063341326588    3.47098275084814   -0.52583118705945
F         4.48499453306140    3.73010422385863    6.06903269461017
F         2.48989195391187    4.93378595910994    4.67890296343874
F         3.04623465176003    6.88553290282729    2.88775075768113
F         5.63012254583872    7.72016507162691    2.55238854213340
F         7.58119484830979    6.69485412340382    4.06240122952698
F         7.81289962887964    1.18630128592338   12.14884447748805
F         7.01924825932395    1.59052702904647   14.70574266634731
F         6.70679790496028    4.13019508393554   15.65345773419480
F         7.21112957849844    6.25677224433304   14.01992320658835
F         8.04309767743967    5.84803612216406   11.47848673501459
F        12.38374167261815   -2.12159317397863    8.50596066094121
F        14.69502720993874   -3.26642588764912    9.33771627169454
F        16.77082938478627   -1.70276811685019   10.16427457468614
F        16.51862999522289    1.01237233838844   10.13781533210308
F        14.21112249348586    2.14973965493682    9.28264900105793
F        11.65155567438537    1.98752313120618    3.30159058413812
F        12.38150764629952    1.64639058851025    0.78908988205509
F        10.64041719123004    0.56559868177008   -1.04785085349807
F         8.13707323260660   -0.17269975846726   -0.21621322570325
F         7.45653087302175   -0.03599789053334    2.33046141182708
Zn        6.92798882114721    3.02657422111790    2.87056641172042

