35
CSD_code = NIHKEU | q = 0 | S = 0 | Stoichiometry = C17H13AuN2O2 | MND = 2
Au        0.07437666154036    0.72404079830431    4.12113636713518
C        -1.10369515928077    0.72460594813957    2.60096063804208
C        -1.85617282895554    0.72627694421570    1.64895534038161
C        -2.73133569785306    0.72869934119416    0.54466034951184
C        -2.23194197169531    0.58197657749377   -0.75729119490440
C        -3.08601078225709    0.58482826570164   -1.83468987694418
C        -4.45629424004904    0.73540749716497   -1.62526984689788
C        -4.96918615814390    0.88197021284107   -0.33697866454879
C        -4.11217260507223    0.87816778771128    0.73794477070022
N        -5.34424512035522    0.74006552296876   -2.74235435251924
O        -6.53481481899845    0.88046526998728   -2.52661486887309
O        -4.86654564552389    0.59963951107735   -3.85398376944334
C         1.18984530835061    0.71941057729443    5.63877921415601
N         1.81754569925884    0.71076353712689    6.61909595874318
C         2.53421032883284    0.69602377213338    7.76904411952954
C         3.92494504783881    0.85430533036013    7.70365180419714
C         4.63270969768856    0.83357382874821    8.89460794663608
C         3.98078983779724    0.66220217489806   10.10417892290518
C         2.60522059175598    0.50866586944489   10.14612509204303
C         1.85389167705564    0.52243125084881    8.98220269066864
C         4.59999430926572    1.03641253584496    6.38147002095529
C         0.36709112107451    0.36050823836500    8.99421010133458
H        -1.16791879573462    0.46692435171846   -0.90219171949150
H        -2.72010567089043    0.47345685705726   -2.84415472355243
H        -6.03480581362302    0.99634277834611   -0.20779340739091
H        -4.49291572517541    0.99052497441830    1.74235437631912
H         5.70530176287860    0.95294564113849    8.87243321537220
H         4.54913983270733    0.64831722257265   11.02147650835437
H         2.10600800827929    0.37613652819502   11.09396847569056
H         4.43027426719647    0.16952974333243    5.74238690832344
H         5.67026401939638    1.16741211412429    6.51279666151554
H         4.20149086472343    1.90894369267742    5.86351856522310
H         0.00434095542726    0.22927054343172   10.00958782348242
H         0.07013900916320   -0.50534752552323    8.40199560913080
H        -0.11731796662224    1.23570228664516    8.56048094420935

