60
CSD_code = NIHLEV | q = 0 | S = 0 | Stoichiometry = C31H22MoO4P2 | MND = 6
Mo        2.35704888749785    3.08437483307459    3.54022450163609
P         3.26067349623604    3.23887693390379    1.35724091868980
P         3.81103885917078    4.96326139675247    3.82979515403446
O         1.22044025521327    3.15735275388854    6.41155417630332
O         0.56046244031229    0.67646098921378    2.81896733745216
O         0.13451356251588    4.94463777552269    2.44458573161858
O         4.59230703307139    1.17255788550991    4.51487050951413
C         1.64348793463929    3.13087205298629    5.34913411142297
C         1.22487568966672    1.55788330101704    3.11015105880827
C         0.95692086339649    4.27567109333865    2.87196544208117
C         3.77036855792411    1.87640596793383    4.15377058767644
C         2.49884821696228    2.71163457377131   -0.18614323103272
C         1.17354159316949    2.86610391840647   -0.55468588759960
C         0.75680455713660    2.37624429509453   -1.78240236559541
C         1.65569027917984    1.73170798614985   -2.61976378986031
C         2.97829931999409    1.55754071420553   -2.24649418852227
C         3.41271517631669    2.04512655559293   -1.02235166635511
C         4.74332185696060    1.93130130645835   -0.43748683816647
C         5.86105702859166    1.31632284143488   -0.98269379160318
C         7.03936132544129    1.27180927302066   -0.25563054181526
C         7.11261085985690    1.81964940044881    1.01635843350576
C         6.00400129721625    2.43456773409880    1.57675034127998
C         4.83181679644200    2.50279797622819    0.84459059525476
C         3.60450831308481    5.01423369548415    1.10812290193535
C         3.05866595088604    5.75004444965332    0.15014066428015
C         4.48487818151062    5.54100445800827    2.19728514562615
C         5.29017774351791    4.76234888322046    4.87149842482848
C         6.58451452837167    5.15450844797080    4.55019523925963
C         7.61701619316369    4.93250688617378    5.44610914902593
C         7.36820562123591    4.33076832971607    6.66726077677063
C         6.07709218369443    3.95183452025243    7.00033328049952
C         5.04613390678635    4.16530142697439    6.10667816249409
C         3.19592829041483    6.52350012316247    4.54074668610336
C         4.03534716351191    7.63071676406962    4.64911111919964
C         3.56440886088588    8.80539851734165    5.20206303321914
C         2.25754549985522    8.88341021962070    5.65938838379419
C         1.42612845588867    7.78036046302145    5.57154737460800
C         1.89417886931086    6.60119014027008    5.01702980355504
H         0.47711497487400    3.35711687626346    0.11225532284733
H        -0.27321775762721    2.49037509085425   -2.08595072974707
H         1.31736705929577    1.35191129327101   -3.57267496657579
H         3.66225073670700    1.04124131476260   -2.90374106968072
H         5.81453884782330    0.86985849027796   -1.96488760967477
H         7.90941316884600    0.79276746430365   -0.68016034492248
H         8.03354894116839    1.75815657982342    1.57723226589900
H         6.04931246448717    2.83543593364806    2.58334123008581
H         2.42372034964522    5.31972580611373   -0.60702696988298
H         3.22512796992383    6.81511993984288    0.08971512591593
H         5.47963783457682    5.09511900469791    2.07256663033764
H         4.56509623521998    6.63221370303756    2.15897067436623
H         6.80549899552776    5.63134206540918    3.60515227772298
H         8.62194096191264    5.23296053312820    5.18612682172085
H         8.17914548540154    4.15759859716361    7.35889988226292
H         5.87736253069787    3.48550127973722    7.95354924006736
H         4.03347943770905    3.86707354413836    6.35431525279636
H         5.06117266637337    7.56558729803493    4.31034737849330
H         4.21730573627530    9.66254468951507    5.28206386834206
H         1.89217260871307    9.80364081330979    6.09058619321231
H         0.41141627203345    7.83606136018283    5.93684704031418
H         1.25025883094525    5.73285943951281    4.95535574228521

