31
CSD_code = NIHNOH | q = 1 | S = 0 | Stoichiometry = C7H14Cl3N4OPtS(1+) | MND = 6
Pt        2.52434246815820    2.09522311373187    2.17550781386308
Cl        2.29173129180722    0.53048166257116    3.84123874923290
Cl        4.72707987080155    1.36524289000612    1.65319695628434
Cl        0.25428894630235    2.75963389599174    2.42880731287148
S         5.52401954960609    1.99258325440714    4.35478547663998
C         4.22491218176991    3.10409343214434    4.40937881816950
N         4.26365075078946    3.91392130914756    5.49583123642471
C         2.41448007132454    4.43054335191928    4.19084576437089
C         5.26633162405419    3.73300553182002    6.42808544992633
C         3.15913508846542    4.85436050805140    5.47442410948698
C         6.14079939353439    2.58705627638426    5.96786483023198
O         5.39252935506715    4.38300615827549    7.42084087370169
N         3.22907133438704    3.35675769005649    3.60250819521311
N         1.80958769372791    0.78410914856035    0.75254210813946
N         2.69757750074359    3.42127839331772    0.44337683062994
C         2.16618529730822    1.28437933940245   -0.58381760881851
C         1.89770156742231    2.78747400636603   -0.61524362387418
H         1.41499692342557    4.04782857653033    4.41131203870487
H         2.32134295910531    5.25090372590614    3.47552370358049
H         3.53920050984863    5.87747899558924    5.42832139829621
H         2.55453029153139    4.74668233465146    6.37712065226543
H         6.10934965188339    1.77114202957749    6.69181741577194
H         7.17806791633265    2.90883601837345    5.86786761023215
H         2.18071172067765   -0.15872452086544    0.90092135883391
H         0.78940581906791    0.74270641987196    0.86101736400259
H         2.39859791513103    4.38377225564186    0.58995011822619
H         3.68917511442481    3.41400906182461    0.19345155450630
H         1.58969350116060    0.77819782391960   -1.36369870941322
H         3.23131439866806    1.09536660506525   -0.74765685914161
H         0.84161916855420    2.98097028896655   -0.40571016319181
H         2.14517012493229    3.19478042281606   -1.60041077518846

