49
CSD_code = NIHNEX | q = 0 | S = 0 | Stoichiometry = C18H24N2NiO4 | MND = 4
Ni      -15.63070805878118   -6.50352509787664   -0.38115862022654
O       -15.37479253309328   -8.07705819598103    0.55317886069567
O       -17.13211281949759   -6.16890067139405    0.64175771179879
O       -19.87074667275431   -3.06644313459214    0.47378247339866
O       -12.30467353341277  -10.85046218442408    0.36077355011125
N       -14.19854958099195   -6.87631263515153   -1.48128064843289
N       -15.80520829124818   -4.88217815763795   -1.24387316370510
C       -14.14450377365207   -5.94415612531577   -2.61350543791865
C       -12.80087234703311   -5.77956492471804   -3.32579926454097
C       -12.95579014071919   -4.76840262391566   -4.46092353594490
C       -13.46798755325124   -3.42988515810392   -3.94439872533106
C       -14.79956575777748   -3.58956055440465   -3.21209411908045
C       -14.62554118546738   -4.58786453449452   -2.06613802939342
C       -13.36976078866522   -7.87458853714749   -1.39015219993488
C       -13.38114610874387   -8.89421565255013   -0.41440334170473
C       -14.44873865106274   -8.92721157704418    0.52804965187504
C       -12.32108953736112   -9.90095840330527   -0.40165124210714
C       -11.17598971285731   -9.73670853390333   -1.39066467941582
C       -14.54447459092122  -10.01000768645776    1.56157139375010
C       -17.99190386135521   -5.25252617167208    0.59851016412403
C       -17.89012132635733   -4.12400031645406   -0.26466222167307
C       -16.75895767827516   -4.00922997769543   -1.10051621415644
C       -18.91526120867711   -3.08159322678361   -0.28103190807023
C       -18.77653381401426   -1.96789007088741   -1.30897411721146
C       -19.14944804926927   -5.41434686910580    1.53860643625858
H       -14.88584684061206   -6.29005179420733   -3.35157083852474
H       -12.46921176221784   -6.72576911176065   -3.75521017899019
H       -12.04690501315243   -5.43660114143146   -2.61398370824412
H       -13.65672520877206   -5.16395985586415   -5.19926607572172
H       -11.99364148566430   -4.62869746726110   -4.95626326774108
H       -13.59286048048900   -2.73650458075105   -4.77760143462159
H       -12.73286333064146   -3.00024835014972   -3.26032958783121
H       -15.56871738792496   -3.94925983237416   -3.89890842697070
H       -15.10041408768057   -2.61136610970973   -2.83506409927997
H       -13.84657925677071   -4.20327596560695   -1.38843942020767
H       -12.59638723107090   -7.94789820781442   -2.14531729016601
H       -10.44625477117203  -10.51689509738666   -1.18781266282513
H       -11.52996365330675   -9.85359927324609   -2.41286825220920
H       -10.69654060063427   -8.76708663575200   -1.28099864747952
H       -15.42440845059765   -9.83171636602617    2.17512944968344
H       -14.61009348966428  -10.98269939482538    1.08003159894118
H       -13.64872950127074  -10.02353319628835    2.17755557679508
H       -16.67758646205493   -3.08864866285217   -1.66600613779008
H       -19.66211215622745   -1.34043514363041   -1.24186164813727
H       -17.90366876195089   -1.35401828787240   -1.09625930893355
H       -18.70173243110793   -2.36879614507553   -2.31686240476079
H       -19.03198261799497   -6.34936160266181    2.08120482237531
H       -19.18754808925381   -4.57762173221805    2.23196778719737
H       -20.08694935452940   -5.40996502422050    0.98813138227942

