96
CSD_code = NIHPOK | q = 0 | S = 0 | Stoichiometry = C36H54ClFeP3Si | MND = 5
Fe       10.41637859457221   11.63119703086061    1.68195567649288
Si       10.28178960026680   11.56278693385723    3.92665642465831
P        12.28286660373574   12.81122913674027    2.20559872819211
P        10.48414389137828    9.36048077267017    1.99540164648898
P         8.44286386477141   12.71946430646664    1.96954247460481
Cl       10.50578529391841   11.65793797965123   -0.38505776333427
C        11.99303109582764   11.84759083341211    4.72072942441154
C        12.35672868805466   11.51036049378451    6.01133186248285
H        11.61002956617475   11.12837930586413    6.69166579101370
C        13.67230369117261   11.63431964180396    6.42669192741078
H        13.95172509170071   11.36866626272614    7.43624695516208
C        14.63597922299126   12.07600243566335    5.53649029511655
H        15.66802915811511   12.14967240462748    5.84925412443996
C        14.28652310926540   12.42110277200239    4.24083199831672
H        15.06103672806064   12.74001255266523    3.55843819992122
C        12.96293218214588   12.32142109440083    3.83237651125428
C         9.64562040761138    9.86856509116634    4.52597012523102
C         9.10207040932573    9.60502225576841    5.76951971125839
H         9.09308808727255   10.38070840366127    6.52076325524898
C         8.54929659300394    8.36607376423532    6.04817787217173
H         8.12539403129026    8.16526588477280    7.02174441657620
C         8.51877961905051    7.39095364273250    5.06625404527540
H         8.06615830607938    6.43092922132437    5.27090638057534
C         9.06203175108791    7.63932655788063    3.81607870977518
H         9.00369684124036    6.86926971807813    3.06068010544192
C         9.63954878727333    8.87296865853955    3.54500003941568
C         9.10193293652292   12.90733903631046    4.58997635044749
C         9.05328739383612   13.37346014859437    5.89078004146945
H         9.66509698175601   12.90438915955603    6.64701529095004
C         8.24778937283095   14.45019059149140    6.22310721959080
H         8.21417470854648   14.81105818250093    7.24119079217366
C         7.50241012734469   15.08038585186274    5.24155662418469
H         6.89103545910571   15.93581082010033    5.49211785408799
C         7.53839600153765   14.62343259706828    3.93401437147011
H         6.96537285543231   15.14645966706220    3.18212412329213
C         8.32745171263530   13.52882768906375    3.60580449811386
C        12.34434288844899   14.68090951588808    2.45605700386157
H        11.94361374042899   15.10085173561159    1.52495232553888
C        11.40941277618117   15.05687040494878    3.59842546133244
H        11.77834264280646   14.66359659301279    4.54464367748618
H        10.41612500438233   14.65062300291024    3.43054431114589
H        11.33119731314210   16.14003110897307    3.68636557862412
C        13.71986096481101   15.28846626894321    2.71739701240372
H        13.60563400030103   16.36474604904099    2.84629304662332
H        14.41340206508363   15.12777728785836    1.89688315319744
H        14.14974511152216   14.88890352279616    3.63301238397701
C        13.72987221169734   12.60995447488272    1.02880204147666
H        14.62427029788459   13.01122171930512    1.51894496826209
C        13.48704111972442   13.36440323519814   -0.27575641055485
H        14.31554320449185   13.18877556399612   -0.96141985240123
H        13.40194937862414   14.43709622651238   -0.11628807404796
H        12.57614406209203   13.01014897965456   -0.75345108216019
C        13.94466103620942   11.12747031750196    0.75120216132479
H        13.02800259483205   10.69026951857824    0.35394632819972
H        14.22431012976729   10.59934119064109    1.66064366881780
H        14.73521434875204   10.98877062316622    0.01469361600173
C        12.07096896749817    8.36965146769848    2.23895498939015
H        12.67723562260509    8.59179839416881    1.35137647294803
C        12.79811198289699    8.90159496662291    3.46716410115076
H        12.23052650550761    8.69151735529031    4.37260435190984
H        12.93173480863684    9.97732946989202    3.39748129388734
H        13.77812863914063    8.43522411247458    3.56243002671435
C        11.91810526816827    6.85652114544445    2.36545335736548
H        12.90633710265240    6.41731184794357    2.50163223110117
H        11.47558438824381    6.40294122082433    1.48307313856391
H        11.31931922132782    6.60208540011035    3.23698890784908
C         9.65506540621032    8.30315920368473    0.68532075725847
H         9.53682759402773    7.29176085543780    1.09068168044739
C        10.49266115762850    8.23819193693615   -0.58956444195765
H         9.96674070896529    7.65300712928889   -1.34359707660087
H        11.46133506390892    7.77416647715035   -0.41735026125724
H        10.65172693237526    9.23662141404331   -0.99066139913788
C         8.27527600659466    8.87544317018707    0.38384145422121
H         8.36674942931053    9.91798894008116    0.07730582232234
H         7.63133476862015    8.81872367263891    1.25929700040849
H         7.80321133549694    8.32239194130220   -0.42733263277591
C         6.78470394879002   11.82100851392423    2.00779272675135
H         6.73683818041889   11.28161430861639    1.05288131481922
C         6.80087929380395   10.80155296492531    3.13929879435907
H         6.83813863274769   11.29940424346363    4.10717464840704
H         7.67103279494575   10.15594818498712    3.06064760810569
H         5.90477648973558   10.18265131910238    3.10809775965775
C         5.54421973877468   12.69953979476260    2.14374940060611
H         4.66237788947199   12.05908244024204    2.15416254061137
H         5.43255664697428   13.40008325963971    1.32108060208694
H         5.56521139287969   13.25080082539250    3.08112232513017
C         8.03087750634437   14.08414467566097    0.75016611341426
H         7.19879403760694   14.66867748084775    1.15923761444855
C         7.62907974679681   13.51659316837836   -0.60903154509779
H         7.45770964249251   14.33325696220193   -1.30989652536186
H         6.71833944209624   12.92470113572585   -0.55207548411608
H         8.42484324806255   12.89246425444195   -1.00947596563653
C         9.24645759900478   14.99058758806044    0.60338907386700
H        10.10757188538300   14.39956485577177    0.28963602934451
H         9.47803032444092   15.48284344500266    1.54583571035545
H         9.06401699329042   15.75556221924541   -0.15031993805740

