102
CSD_code = NIHQAX | q = 0 | S = 0 | Stoichiometry = C54H42ClFeP3Si | MND = 5
Fe        8.14969727231531    9.74466240891148    3.77633397598425
Cl        6.29851011621058   10.32903910768262    2.83479141391612
Si        9.99298386972813    9.30129267860335    4.92415836464678
P         8.08974350493038   11.46537848658923    5.11085804312409
P         8.16835522945235    7.60210478250379    3.37424411109302
P         9.45642176843481   10.50944468167120    2.26722758064168
C        10.07593287778913   10.29416943085390    6.54688939133459
C         9.19749573675390   11.37476454015293    6.55380167289767
C         9.09335745113767   12.20838647649941    7.66000909562430
H         8.38001252720034   13.02184540180073    7.66768235117120
C         9.90350712167106   11.97899136841423    8.75730976150476
H         9.83186631477049   12.62139105190604    9.62335950620409
C        10.79636230893282   10.91782299735401    8.75257448869128
H        11.42423786213955   10.74195590588589    9.61456272310822
C        10.87530483758160   10.07771450873687    7.65494819418223
H        11.55824448511030    9.24228793755227    7.66717996052618
C        10.28413759114946    7.43549579564657    5.11745894689920
C         9.42335805309529    6.67963898912598    4.32932052923053
C         9.54056398434836    5.29575944336775    4.26611504289144
H         8.87210620148955    4.72225159199407    3.63678027653352
C        10.51564140128212    4.66305666800880    5.01420804357497
H        10.61037681532225    3.58715638552794    4.97778640332645
C        11.37496808278818    5.40911541532347    5.80786480290195
H        12.13931893962966    4.90997223655186    6.38646865225850
C        11.26190603451326    6.78766964553563    5.85169296488049
H        11.94528405555757    7.36200683273458    6.45794327288602
C        11.51129117960045    9.96158951602223    3.95681519634024
C        11.21053716215250   10.57758862255025    2.74294505309245
C        12.20475632052364   11.21483280025533    2.00544743116328
H        11.95330143519720   11.74835981410923    1.09792299339274
C        13.51060802456545   11.19357514128614    2.46086253910207
H        14.28699538447623   11.68442174289467    1.89108445954920
C        13.82286272737137   10.55360593538524    3.65131307109022
H        14.84522859867908   10.54110386221248    4.00167912320804
C        12.82505100339721    9.95501765159555    4.40035473137133
H        13.06537148063486    9.48563553270871    5.34243389809444
C         7.87350340734675   13.23705892253145    4.78377908340343
C         8.79925139231774   14.19275037489982    5.19068645603928
H         9.68556878704909   13.89009809046053    5.73197044216068
C         8.58119548885238   15.52770729070177    4.90312946409459
H         9.29100807731562   16.27108944517903    5.23770005087529
C         7.46116199632625   15.91237490164737    4.18487713528197
H         7.29442206383253   16.95697123230970    3.96530471170530
C         6.56281798244565   14.95734381019089    3.73574578353490
H         5.70081411817900   15.25471882403652    3.15673104083860
C         6.76588035108852   13.62326125819732    4.02984835882915
H         6.07459225722375   12.86999591242901    3.67655004453540
C         6.54906822978393   11.03332304930846    5.99155857593955
C         5.63604811426398   11.92144443659519    6.54406160424926
H         5.80111963853486   12.98741174351970    6.46930030917463
C         4.50328174310335   11.43317970668334    7.17261512390959
H         3.78914160462578   12.12414336585087    7.59726863864819
C         4.27618299255922   10.06947916723940    7.25158834954710
H         3.38430562949154    9.69816358943635    7.73460042877677
C         5.18848051531341    9.17769009605934    6.70811394058929
H         5.01260464247670    8.11325795493112    6.76314700194472
C         6.32129067624984    9.66094575287527    6.08618771726218
H         7.06069828900814    8.96739490698867    5.66552516554098
C         6.60846782987598    6.86473347978529    3.98511641651999
C         5.42910284439832    7.20880551267588    3.32481241398672
H         5.46800171451926    7.88242370590461    2.47939231035093
C         4.21397372215899    6.72587644228875    3.77221151053077
H         3.30551101637250    6.99573022202059    3.25376188812901
C         4.16042196303598    5.90731714865569    4.88915481159024
H         3.21051999287560    5.52991327006826    5.23963539577849
C         5.32520927069281    5.58892322232094    5.56764068049566
H         5.28522034581476    4.96606002026831    6.45039763409196
C         6.54562036881386    6.07056504234003    5.12617614898850
H         7.44719781241785    5.82872928601793    5.67223496582604
C         8.42292722860001    6.71963605635937    1.79350211757097
C         9.73657309371743    6.73305504841749    1.32528953833247
H        10.49319950462689    7.25812173973137    1.89839648165417
C        10.06800204917737    6.08056007850381    0.15624673446422
H        11.08940489042472    6.08791395036473   -0.19522043766678
C         9.08850579574147    5.41519691092228   -0.56501730112330
H         9.34555895594542    4.90385926198010   -1.48104594040324
C         7.78264635132636    5.40499523552522   -0.10851331749612
H         7.01894685430006    4.88326102676480   -0.66751314191499
C         7.44538132907337    6.05300383068645    1.06778231624427
H         6.42515258655574    6.02478179758374    1.42171553019284
C         9.44378490581041    9.70999588038498    0.62173934534024
C        10.57546118311241    9.48177350652271   -0.15264688127017
H        11.55649145474722    9.72747083188085    0.22502152984683
C        10.45167909226649    8.91378979037866   -1.40815444672829
H        11.33610107867868    8.74423359799401   -2.00601250203535
C         9.20669441065418    8.56028219616006   -1.89894253427533
H         9.11745391727563    8.12127181201710   -2.88194926529311
C         8.07907453038986    8.75567646460993   -1.11940447811840
H         7.10728537454419    8.46188754562977   -1.48864659414055
C         8.19679499445944    9.31888193881641    0.13666142234213
H         7.32141410393511    9.45192668636711    0.75877961736359
C         9.15054567926540   12.23966517069793    1.76557987035000
C         9.87180737573075   13.27780117929629    2.34920158048013
H        10.63375250378180   13.05645940610036    3.08535725143178
C         9.62516717639133   14.58735177048547    1.98196497808967
H        10.20610036477087   15.38556336806236    2.42111399109602
C         8.63201618560259   14.87677948764850    1.06197143930488
H         8.43915205285285   15.90165225743820    0.78005990987640
C         7.88170239719628   13.85085102811616    0.51186390178949
H         7.09425566065382   14.07447770477629   -0.19316289531488
C         8.13933478170306   12.53766697138462    0.85705251617046
H         7.55234949852459   11.73976989595030    0.42777799416256

