103
CSD_code = NIJCOA | q = 0 | S = 0 | Stoichiometry = C54H42N4O2Zn | MND = 6
Zn        6.19816230276487    3.13632024108239   21.87883082420635
O         4.75562635885241    1.45723743110354   21.82971822297444
O         4.34290916903995    4.33986236203836   22.05177516001819
N         6.01049468488424    2.93590489382308   19.98705017767663
N         7.66464171153233    4.91763346645906   21.78037538712030
H         7.98944449506241    5.23942869797574   22.68597238908707
H         8.44469567919293    4.69577025003090   21.16951172812622
N         6.10780688246456    3.31439359619597   23.78062217368847
N         8.07796088299565    1.80330174546930   21.84964227261847
H         8.39016596873800    1.55034707881798   20.91822415476996
H         8.82275454425740    2.25061032133830   22.37504913786720
C         6.97009665896284    3.38718118557235   19.09951278659875
C         7.68565793185167    2.46167470564373   18.29259026881039
H         7.42222236285599    1.41535119146073   18.36815158021943
C         8.68067218426691    2.86238269281893   17.45666825676091
H         9.21624773227125    2.13984895750707   16.85630429853183
C         9.04242226033966    4.22436988645937   17.36160016693935
C        10.07364875058194    4.66265060964885   16.51050796161092
H        10.59385065236738    3.92947609714176   15.90966165400936
C        10.41135723918480    5.98625716339011   16.44028861651339
H        11.20119944389186    6.31659114994935   15.78163905457516
C         9.72763743278956    6.92357166957857   17.22763788060552
H        10.00377724723428    7.96657716420196   17.16951126693874
C         8.72361468725969    6.52817245512966   18.06689152406102
H         8.20575540316431    7.25753243872243   18.67291092151987
C         8.34246485710572    5.17013965418771   18.15668444279560
C         7.29832948935248    4.73598852420161   19.01224420735261
C         6.55734372874577    5.74210606657071   19.80807827683293
C         6.78709349181847    5.84246343759838   21.16337424906574
C         6.12625443837691    6.80848298937195   21.94065646550603
H         6.32776791434434    6.85555339835923   23.00172219481998
C         5.23750611144405    7.66706844275484   21.36163061781401
H         4.73229130710471    8.41406575705915   21.95694270793235
C         4.96062594128941    7.59239116870393   19.98023124220616
C         4.03605962678184    8.45810419548414   19.36071520979922
H         3.54052833413607    9.20391886300738   19.96665806973831
C         3.76768876686979    8.35732548422020   18.02460727151789
H         3.05856000618342    9.02507751410451   17.55761980113143
C         4.41054680253304    7.37980865258362   17.24974016436477
H         4.18448094324630    7.30669513321235   16.19604217884512
C         5.31627026850634    6.52921262558525   17.81831438406807
H         5.81136386720756    5.77799558093331   17.22158236078868
C         5.62381079807548    6.61343101289739   19.19303707227843
C         5.10802363480958    1.99790317431772   19.55695225747294
C         4.75986296356419    1.82738554574089   18.21131155828517
H         5.23965186334805    2.44609945207035   17.46720131497412
C         3.80769197414747    0.90504748223617   17.82408139995592
H         3.56708474132439    0.79722754641925   16.77659017665314
C         3.15878297967277    0.13371275982789   18.76869225604851
H         2.41652652337575   -0.59157865122562   18.47331673083417
C         3.45479586029534    0.30600054221046   20.11520733130034
H         2.93428561510764   -0.29251052955213   20.84631004813691
C         4.40792305156938    1.22233488688585   20.51009040949045
C         3.95421081263175    0.88750138245483   22.83677720482224
H         2.90356348172326    1.17193700392431   22.71811852033156
H         4.32947037722473    1.27885010662306   23.78037283648212
H         4.04251450644883   -0.20357597238395   22.84355448627904
C         7.22987889779940    3.17907665501557   24.57737497404653
C         7.72477561747778    4.29301483441843   25.30830379156523
H         7.16904536667058    5.21949642901267   25.25658938808713
C         8.86606586461709    4.21546068669936   26.04379996287627
H         9.22771278618307    5.07792370061761   26.58675514668210
C         9.60710886630207    3.01474049092702   26.10702541895656
C        10.79607015924674    2.91217538617322   26.85249958070614
H        11.14266292414703    3.78149103474144   27.39405483727455
C        11.50026759982147    1.74031083704203   26.89344984686899
H        12.41110168350431    1.66771740416964   27.46939365662881
C        11.03930486033596    0.62384414537926   26.18130974167330
H        11.60337030238890   -0.29710239587768   26.21663469902740
C         9.88899361870637    0.69299278939336   25.44600342290730
H         9.54271779712761   -0.17232397547021   24.89944958723285
C         9.13186280217544    1.88506691464468   25.38966950667666
C         7.93225692149707    1.98017034084216   24.63991498615874
C         7.43219015210026    0.77958378225520   23.93059794593719
C         6.84020374743494   -0.29211742404170   24.64489200058836
C         6.65344536938969   -0.24558659556067   26.04290696617351
H         6.97300571032348    0.63508342118930   26.57951955841705
C         6.07831087640174   -1.29156002745347   26.70797843814282
H         5.93992045244837   -1.24399677056067   27.77821014459088
C         5.66103778497813   -2.43566432095443   26.01090848379938
H         5.21210547768411   -3.25490188143849   26.55321554225959
C         5.81946307301902   -2.50784365144748   24.65552489796629
H         5.49647123148583   -3.38361700331982   24.10986408960172
C         6.40471866660790   -1.44456999685176   23.93793741976031
C         6.56218320336288   -1.49181861357182   22.53663664728182
H         6.23213995682783   -2.37135261618771   22.00260480197861
C         7.11903808753213   -0.44372282499010   21.86290336893673
H         7.22557309328178   -0.47270433804732   20.78741284870037
C         7.55371674395765    0.69589115756750   22.56039160974751
C         5.02021353529554    3.97904702532755   24.28576151227311
C         4.75406884208997    4.08494283867098   25.65638978013539
H         5.44903768480122    3.64565825263343   26.35695401628003
C         3.61932528399013    4.71853986880245   26.12358401442988
H         3.44846180572177    4.78671093037724   27.18796885579651
C         2.70411076331262    5.25324287983473   25.23773020708879
H         1.81705037243655    5.75275699102262   25.59538848164854
C         2.92171184335111    5.13261165386281   23.87079132612748
H         2.19533384612445    5.54293973644637   23.18694435009164
C         4.05511110993644    4.50504946549279   23.39596838967780
C         3.33870355244242    4.65224244321010   21.11650332543795
H         2.41888656025573    4.09368186566610   21.31870691384468
H         3.72974105367352    4.36214941449877   20.14331351778590
H         3.12412630656656    5.72555837787404   21.10845668437341

