55
CSD_code = NIJDAL | q = 0 | S = 0 | Stoichiometry = C22H28N2RuS2 | MND = 9
Ru        7.47017173608689    1.89450294980940    3.30827627397908
S         6.47114681189857    2.68221146016003    1.21999090289084
S         6.26595719479725    3.75098070018096    4.40587149494515
N         8.79698827630915    3.57770076140977    2.93859974032152
N         9.39307759228921    3.99610554261304    4.16775517174010
C         9.20515639058584    0.49953048235120    3.62037356056219
C         8.39674753294254   -0.10226523497571    2.64046526255828
C         7.02561903374913   -0.31545912343660    2.91185673997490
C         6.49079206097926    0.00581119635530    4.17194170151934
C         7.34210280308210    0.52703110116123    5.18291418845826
C         8.69181464410635    0.76583732647367    4.91669155248409
C         6.82847872272279    1.33566602172776    0.13372297497825
C         8.09014616951581    1.20517306638032   -0.45746135689220
C         8.33047120763234    0.13445417784608   -1.30675986325973
C         7.33737325005237   -0.78304484628404   -1.59341804847437
C         6.07763233984685   -0.61957482320447   -1.04544289088676
C         5.80195461918140    0.43693094330940   -0.19141591518003
C         9.18433291158273    2.19225190470891   -0.18311606098542
C         4.42767994556983    0.61329382829733    0.37330048263191
C         5.28086891604418    2.87697900993437    5.57063927012531
C         4.09829362751091    2.26118000982525    5.14464380436474
C         3.32816982337396    1.58158280206107    6.07627043020428
C         3.70208967376041    1.53378780673765    7.40737560395332
C         4.85556427533132    2.17548522709914    7.82307515012445
C         5.65706484666851    2.85596407045578    6.91896518090200
C         3.68450457939086    2.34708078781927    3.71221528580014
C         6.90509108709771    3.54947171760600    7.37187967891134
H        10.26633851006756    0.63577244904782    3.43575097938613
H         8.81611040668340   -0.43424682544324    1.69842644893534
H         6.41129864802225   -0.81382699561964    2.16959059388928
H         5.46257481557140   -0.24053598433046    4.41359055277321
H         6.94535657331938    0.67725902701078    6.18043532962307
H         9.35555938624485    1.11824106424978    5.69632429845604
H         9.30892557391698    0.02716657004109   -1.75457665121814
H         7.53901860153817   -1.61316536367449   -2.25447572690491
H         5.29149802922733   -1.32058682858688   -1.28905451795278
H         9.74831980397432    1.89294489595127    0.70384818561087
H         9.87513349024893    2.23820340108178   -1.02193357154338
H         8.75503886030656    3.17842779306445   -0.01541854402010
H         4.44413435597888    0.51684498749319    1.45871250475767
H         4.05827134218443    1.61192924301245    0.14700004607471
H         3.74213847405656   -0.12456011437043   -0.03658894313752
H         2.41819259928467    1.09462033263226    5.75408280531568
H         3.09047523167086    1.00389043039542    8.12314724693945
H         5.13943056848514    2.14926677943347    8.86607268565041
H         3.33193310099726    3.35445676255335    3.49032588642696
H         4.54203478871134    2.16657120980028    3.05782648073625
H         2.89057142509339    1.63941633891711    3.48532081437301
H         7.07015108320452    3.39559946176031    8.43544995131016
H         7.76887786849978    3.17694310514625    6.81945628594489
H         6.82764721633222    4.61813877744887    7.17661722665048
H         8.22305411417703    4.31290376541620    2.48522600916295
H         9.55135057564896    3.32896796971913    2.29226664343986
H         9.88773827445622    4.88310868318825    4.05166205904936
H         8.61873620998292    4.15948019824012    4.82150460451410

