47
CSD_code = NIJGUL | q = 0 | S = 0 | Stoichiometry = C18H25N3Pd | MND = 4
Pd        4.64474883839932    8.39138363732408    1.76720978053258
N         3.85473763045305    8.33291552524672    3.61794731323811
N         4.58233625495690   10.53485008557455    2.42664000625854
N         3.27877778052234    9.42607162925606    3.99278866030040
C         3.76071631028149    6.26750960017039    4.84139205180603
C         3.12463532586506    5.07245283358516    5.13389374951011
H         3.57127297373108    4.39819204160943    5.85029228350473
C         1.93321344799072    4.73711045453917    4.51551481053436
H         1.44768163065774    3.80132987661472    4.74928980344439
C         1.36968905249368    5.59629389244328    3.58925780836077
H         0.44786727986784    5.32478572541533    3.09511661913471
C         1.96781491645258    6.80792141508659    3.27743160155529
C         3.17029522094925    7.14391174972671    3.91941423641026
C         3.83325178353488   10.58085425736497    3.55370140558928
C         3.57497040421476   11.79370804531820    4.21269667600756
H         2.97057702439585   11.78622524432193    5.10456675599141
C         4.12092932659782   12.94576174531914    3.69964057716121
H         3.94362041439031   13.89678952285083    4.17969638677944
C         4.92215020811726   12.87750096541045    2.56151118795021
H         5.37207087766196   13.76678135505705    2.14927974692576
C         5.13706086365578   11.64840869910497    1.95565231621611
C         6.01342010350057   11.49397494076073    0.75133232205232
H         6.32636663131748   10.44702858667932    0.66644006504487
H         6.89068042762495   12.13246024980957    0.82885981709074
H         5.46782881345967   11.76959188282371   -0.15142646549376
C         1.34751969275701    7.71637112341184    2.25031827169693
H         0.80082291291996    7.11063604498027    1.52414981335203
H         2.13677405244896    8.26864313110512    1.70408527448398
C         0.38357724305994    8.70950600997343    2.90318722314212
H        -0.06915224154709    9.34875820835610    2.14847142674369
H         0.91562430299877    9.33210144915680    3.61866039969297
H        -0.40664551637831    8.17606394429515    3.42778143170938
C         5.03370766795475    6.66532061577786    5.53218566930559
H         5.68609461091266    7.18100994234212    4.81828196940879
H         5.55010513965874    5.77379707136319    5.89352028635072
C         4.74546329333387    7.59967467527459    6.70898720560740
H         4.23823428041894    8.49822935244456    6.36464669344503
H         5.67194795929632    7.88980164248383    7.19967782966046
H         4.10638075515736    7.10405386611185    7.43676866132332
C         5.00077999915952    6.39637392933736    1.47801042695726
H         5.65776868285412    6.20923058632650    0.62402057919346
H         4.07815010625380    5.82312957594049    1.33631869781214
H         5.49892021105075    6.03201505368138    2.38855761664077
C         4.34936674529032    8.53658883030154   -0.25475437694450
H         3.74966385699487    7.71967362074833   -0.66381025138750
H         5.30312536423155    8.56578831759715   -0.79127355743073
H         3.81665734008794    9.48571904759214   -0.41583080667122

