35
CSD_code = NIJHEW | q = 0 | S = 0 | Stoichiometry = C14H17N3Pd | MND = 4
Pd        6.08637374962840    9.76045151929788    5.69549493994596
N         3.87084904517191    9.53854447312295    5.91391513813362
N         4.60061533050880    7.36608246415852    5.62280913149347
N         5.77380299781709    7.75559346751892    6.01161835354301
C         3.57686556571271    8.21690435091931    5.84877920283150
C         2.24858038179988    7.76316913499369    5.92075045331904
H         2.05411135642304    6.70516518965761    5.86461222342132
C         1.24795776233997    8.69145192338557    6.07701924858666
H         0.21612364890417    8.37791269573452    6.13680373619008
C         1.57041122757460   10.04488907767144    6.17355075111826
H         0.80002373285094   10.78789206721999    6.30610015590315
C         2.89981460943362   10.42965439863603    6.09366557232298
C         6.83670981318798    7.00415545727487    5.48917085952949
C         6.90107346821016    6.71778433504942    4.12242648559973
H         6.10345488441323    7.06546244836415    3.47827780272659
C         7.98594436837331    6.02866402311041    3.61666648655665
H         8.04446529642293    5.82138150402881    2.55835023862971
C         8.99542952888013    5.59845833916616    4.46382456019738
H         9.83902073434204    5.05508215695440    4.06495007825474
C         8.92493189021347    5.86573303172497    5.82270843189728
H         9.71026840391564    5.52420879489749    6.48078780369857
C         7.85571480540342    6.57086115801756    6.33903536270685
H         7.78480953493309    6.78194097819037    7.39663413254408
C         3.33567706014426   11.85803827130517    6.21681030214134
H         4.42130588956435   11.88811766590629    6.38160489132636
H         2.82793490356848   12.34465578802439    7.04694938638658
H         3.10264437070667   12.40682867135012    5.30441809488614
C         8.11706871281336    9.90012030013039    5.88250159799140
H         8.66216298263463    9.34212046639693    5.11300608765219
H         8.33710973494933    9.45262035112388    6.86488584831599
H         8.47453408398442   10.93382374215051    5.87959339370895
C         6.21577870970055   11.12695734652148    4.18055777566249
H         5.23725927809619   11.09408044493897    3.67998444375938
H         6.99637444903883   10.86254607771283    3.46222911363692
H         6.40189768834127   12.14094788535310    4.54580791537020

