50
CSD_code = NIJHUM | q = 0 | S = 0 | Stoichiometry = C21H24N4Pd | MND = 4
Pd        4.56218368032076    2.96000904087173    8.66172306162660
N         5.27906160270838    2.17141088908933    6.89008738400362
N         5.95025568321229    1.07577107801233    7.07550612146332
N         3.54010113939604    0.20271164438112   12.27256871712631
N         4.76224977629474    0.77946348285765    9.02776923766550
C         5.49002865081942    0.23661367822376    8.02348185534766
C         5.83768425020220   -1.12779275669840    8.03600742323707
H         6.41429300973642   -1.52468705476390    7.21682142490090
C         5.42515387899692   -1.90364365113744    9.09201861022954
H         5.68575004695624   -2.95106558881560    9.13331736440997
C         4.65445653399760   -1.33765157980616   10.10779844754472
H         4.30638355008865   -1.91551341314753   10.94724146223906
C         4.33130679511485    0.00846282977190   10.02805011030639
C         3.47987193161123    0.66932131139353   11.03268492512557
C         2.64446518772704    1.73241197749506   10.66630213391667
H         2.53504574048738    2.03775479098154    9.61744053044191
C         1.89433266200101    2.33813114966591   11.66168123791260
H         1.23681665386043    3.16297691545904   11.42576986399200
C         1.99246404532477    1.86791787410974   12.96068464954763
H         1.42720534074530    2.32652101298754   13.75793928897010
C         2.81999268666825    0.77836118291411   13.22308688391202
C         2.95057469782476    0.19273279650545   14.60554029432944
H         2.30006704771237    0.74941321151388   15.28844901316738
C         4.40024053146247    0.31929357931510   15.07653512506582
H         5.05529305186250   -0.19773693110528   14.38055790439298
H         4.51658043141351   -0.11743812427317   16.06563690718063
H         4.69774501951127    1.36486848665631   15.12029023191145
C         2.51930010569491   -1.27433365490177   14.58588778852697
H         1.48121343655652   -1.36420586714889   14.27233997667414
H         2.62267916689037   -1.71213689354192   15.57591408033710
H         3.14205852300346   -1.82728565253090   13.88813658257771
C         5.97319912191992    3.15040786720264    6.16129266212841
C         7.28067735548252    3.49687645606610    6.51439065013873
H         7.74970125915568    2.98214558227962    7.34402850911171
C         7.93241523238053    4.50273075044624    5.82886488848681
H         8.93672119008035    4.78219552221579    6.11137823766701
C         7.30231713148654    5.15104924100783    4.77761082756929
H         7.81691322241278    5.93412503142308    4.24087401422999
C         6.01123547801947    4.79834429468629    4.41601326349285
H         5.52470575452145    5.30291336605652    3.59428962412969
C         5.34083118886061    3.80633122231428    5.10504738712349
H         4.33588796585045    3.51868933728015    4.83064652106240
C         5.36462001241706    3.71919416249952   10.38522676098031
H         6.14512759485134    4.45386120369000   10.16745386028746
H         5.80700056149701    2.85516015969426   10.89978145511037
H         4.61256874228108    4.17552219025960   11.03264030094866
C         4.11995069379374    4.87431938340915    8.10819657527710
H         3.44604878981094    4.75808187283822    7.24357559740303
H         4.98604801257622    5.46725901423658    7.79751881837628
H         3.58947583441570    5.42073757806974    8.89410140836140

