46
CSD_code = NIJSEH | q = 0 | S = 0 | Stoichiometry = C22H14MoNO7P | MND = 6
C         7.03244998801379    7.35416187131370    0.73994355338638
C         8.11656061298221    6.53886679319277    0.45379805201386
H         8.77868652548255    6.25405770414291    1.25755199561221
C         8.32761811601687    6.09519683620017   -0.83907499016210
H         9.17446719295044    5.46235485362777   -1.05659208930838
C         7.45410722561008    6.46614451339304   -1.84784237331709
H         7.61708296486655    6.12392545464183   -2.85853590429375
C         6.37334492968175    7.27833916595298   -1.56160457781668
H         5.69760725007079    7.58043182249128   -2.34785329105739
C         6.14609812240690    7.74058849334819   -0.26781205588858
C         4.99647030719051    8.61051932474212    0.02861825448384
C         3.72864939784964    8.33206905317814   -0.47478142041859
H         3.58685379879044    7.44316996195250   -1.07097777435944
C         2.65845799160583    9.15966382290428   -0.19157511359842
H         1.67901252221575    8.92069658262240   -0.57689702684873
C         2.83972741344089   10.28921624802710    0.58882499705592
H         2.00626219931515   10.93621105062564    0.81386173812056
C         4.09375036275976   10.58737934828860    1.09353530697269
H         4.25882903629766   11.46807377345332    1.69465103803691
C         5.16186317153369    9.75288398517116    0.81308513937507
C         9.14589352004420    9.32811226583249    3.66084386866239
H        10.19750737382566    9.30413400660395    3.36085915920485
H         8.85972488580827    8.33595615648627    4.04042819093853
C         8.93828249682737   10.35689763998220    4.74319334518970
C         9.99112290821286   11.20532482105154    5.07028123586934
H        10.92950967353258   11.11328761130091    4.54592948373118
C         9.82727508615123   12.15762374594652    6.05913240451020
H        10.63108094766690   12.82525415183115    6.32693711159915
C         8.59497211242367   12.22019876496150    6.69163582388777
H         8.40377868871694   12.93666124048312    7.47430412624086
C         7.59991092890261   11.34374462440727    6.30359393440836
H         6.63204728005347   11.37907039939403    6.78810941072206
C         6.71149492426993    7.55842529610171    5.04826832613399
C         5.22371844514829    9.31073879410630    6.54514852521493
C         4.33008323028632    8.45912453195618    4.05362052338664
C         5.10639235310622   11.06915217804929    4.40025212559238
Mo        5.92983104272092    9.32650539328275    4.73306565960640
N         7.74514628208220   10.42508674075107    5.34486992467376
O         6.80240750275282    7.70496547737307    2.05940677414230
O         6.43163968874252   10.07403211306431    1.29028385671232
O         8.40871392608902    9.63820825688775    2.49235281315913
O         7.09612700948609    6.49626722263764    5.20738999771712
O         4.77581024348636    9.26975831212573    7.59496343838899
O         3.40554376184982    7.97478897394284    3.58925251961309
O         4.59316035030518   12.07092496072948    4.20862107414761
P         6.85432620845310    9.23630566138858    2.58643288856380

