69
CSD_code = NIJTEI | q = 0 | S = 0 | Stoichiometry = C32H34BrIrS | MND = 8
Ir        2.34231212657653    1.29724856457347    2.86760582297437
Br        4.32353709262194   -0.15335990275107    3.17184468623816
S         2.17440408672357    2.06773283898320    5.09296498358700
C         0.22740498829090    0.38473087313751    2.80113470582556
C         0.23921989485704    1.77263434501944    2.37204290643401
C         0.97741052089594    1.86032324549144    1.16359114201489
C         1.57330750894027    0.57888587047604    0.93840260727997
C         1.02391604215342   -0.34507261467647    1.92584995436095
C        -0.58795537652682   -0.14159667216851    3.93685579355035
C        -0.63993777994922    2.83532616918750    2.94415409975138
C         1.06527616831087    3.04962857905372    0.26245541017545
C         2.28252740494309    0.13490830438243   -0.30327988597711
C         1.24619808147377   -1.82104071280409    1.89822343797684
C         3.64317283131189    2.84641760734507    2.67137544095020
C         4.40712260157931    2.97841354408252    1.51360719908826
C         5.25818446765136    4.05052535174328    1.31966831419353
C         5.37767967030722    5.02090349866736    2.29952740849790
C         4.64724100923522    4.90146355922017    3.46425038184345
C         3.78084576012137    3.82660708283341    3.65678188092578
C         3.00305750342566    3.77701547335160    4.95247868082863
C         1.80285340030163    4.70005146355562    4.93860529312612
C         1.60946802741074    5.63728373268621    3.93197436718455
C         0.49179403973070    6.45554395867741    3.93477028159618
C        -0.45283519685907    6.34998041079317    4.93925954320063
C        -0.27483019731680    5.41334340715968    5.94373089544872
C         0.83858775910560    4.59499832190894    5.93967522716626
C         3.94565059352117    3.98554984828856    6.10902381902423
C         5.16573010148028    3.30815995075375    6.08913887988449
C         6.07756093380490    3.46743491235681    7.11384239767899
C         5.79309172435625    4.31361173864425    8.17348126312572
C         4.59458583913615    5.00368526624876    8.19194208790242
C         3.67568749842865    4.84328276301820    7.16805514468517
C         3.14691583252334    1.05178151127154    6.28839560345873
C         2.28185872591335   -0.10396140076101    6.65265040859979
C         2.50507358805518   -1.33858963355727    6.23875494875168
H        -0.16582091173295   -1.06559033290001    4.32703839454828
H        -0.63451541825383    0.58052857987919    4.75076688224932
H        -1.60875732554598   -0.34269891288541    3.60542114530421
H        -0.26973797865819    3.82896388301631    2.70095218042869
H        -1.64988740389667    2.73800390276227    2.54073628446778
H        -0.70147189204818    2.75641816841650    4.02841988234853
H         0.90947329964457    3.97165714493787    0.81812848750483
H         2.03725804671523    3.10746194435291   -0.22252770748999
H         0.29904182264791    2.98220062423809   -0.51214498864291
H         1.57701150009347   -0.36264562287385   -0.97193486497886
H         2.71524498741638    0.98065654730201   -0.83285387287939
H         3.07660595988379   -0.57194873052904   -0.06746068781817
H         0.70904717340949   -2.26105827494474    1.05612712268762
H         2.30343989885746   -2.05465120899201    1.78172942846863
H         0.89379086369882   -2.28763756304744    2.81489789112865
H         4.35491145935419    2.21211419406953    0.75247466664942
H         5.83620675693393    4.12156085400489    0.40986416215720
H         6.04320493681896    5.86019119977026    2.16308322051065
H         4.74187731382133    5.64775388718449    4.24156027706334
H         2.33195357364465    5.73035858366224    3.13605408440985
H         0.36014093901831    7.17713654948033    3.14164497976089
H        -1.32411004739568    6.98767263725534    4.93808127025520
H        -1.00815754742326    5.31622748462002    6.73093449972135
H         0.95702442906283    3.85548028143483    6.71906653523885
H         5.40132099106327    2.66058551243102    5.25733379608339
H         7.01407247396253    2.93188345509850    7.08123960617620
H         6.50551536006321    4.44100540312593    8.97466511998937
H         4.36923383510066    5.67760686277153    9.00549229254920
H         2.75568275258148    5.40725618803647    7.19315678795875
H         4.07135628307272    0.72532751986687    5.81849697938409
H         3.34606988759862    1.69351656434466    7.14569003962704
H         1.42232725602518    0.13261566705905    7.26768480626762
H         3.34866964042080   -1.57892778992301    5.61376976768816
H         1.85675981150329   -2.15277645915875    6.51567639981340

