73
CSD_code = NIJVIL | q = 1 | S = 0 | Stoichiometry = C24H36CuN4O8(1+) | MND = 4
Cu       -2.12020142744478   -2.08889743181513    4.21227451098848
C        -1.59183731892358   -3.27913685982983    2.87322627777472
N        -1.33598891134288   -3.94616580572360    1.96363595062160
C        -1.06494603122797   -4.72641621216412    0.83389538110765
C         0.25495327748117   -4.24324380642470    0.18785060282536
O         0.44789728503591   -4.24681801485468   -0.99263115704917
O         1.13392604411855   -3.87943443458966    1.11329898542885
C        -2.21535815833265   -4.57852736635659   -0.16229541089625
C        -0.85953290395710   -6.18543011202029    1.26138294976301
C         2.41483978449715   -3.47060051128531    0.63730923391930
C        -3.46734191290668   -1.01629359154666    3.49804560047332
N        -4.31364037791186   -0.40804346631572    2.99637933139721
C        -5.33010318027305    0.35061196335343    2.40694235455042
C        -5.42612565448638    0.02222557658545    0.89931495109109
O        -5.91191004510821    0.77292116004918    0.10481189420817
O        -4.96091210772364   -1.19261560895865    0.63309308174867
C        -5.02760217282210    1.83916488397456    2.58830391472710
C        -6.67495831478038   -0.03674378592675    3.03779560578355
C        -5.06011790043627   -1.63013367475308   -0.72164686718993
C        -2.65266012798180   -2.94074598651660    5.82426930860064
N        -2.77742417496116   -3.32468814674148    6.90627967664988
C        -2.86229732036525   -3.76993840758874    8.22821388241043
C        -4.14240855907820   -4.60508297714708    8.43359090693420
O        -4.27438393892139   -5.38051072560558    9.33579454000427
O        -5.06585217047489   -4.31992299626946    7.52281559792565
C        -2.95244873496154   -2.54608652244521    9.14999026825568
C        -1.62807144228923   -4.61428165231912    8.54906902520787
C        -6.31153734201988   -5.00146833870699    7.65825602727046
C        -0.64374933183232   -1.17105669451178    4.94609863817669
N         0.22868503547511   -0.78464685185794    5.60008890506620
C         1.27218251879475   -0.35766890071353    6.43360678718431
C         1.06879182458324   -1.02843306594495    7.80872330546168
O         0.13595163505521   -1.73727413001782    8.08234762737541
O         2.05054809712381   -0.70977018495843    8.63018522930333
C         2.60756604096875   -0.80111117020403    5.82803285586504
C         1.19827525173915    1.16434621210537    6.59567277704551
C         1.99121675352262   -1.25477650395871    9.94718719611728
H        -2.39886592542875   -3.52740797488130   -0.37361925182412
H        -3.12067819221686   -5.02648124810468    0.23930834714289
H        -1.94494417379421   -5.07490576479807   -1.09007784636902
H        -0.04692124674804   -6.26021704832751    1.98083063570926
H        -0.61769513197365   -6.78636953121782    0.38871780451353
H        -1.76946651216430   -6.57239623489643    1.71479713798391
H         3.03415062850523   -3.33071392893884    1.51887143797648
H         2.32730886898867   -2.53874608176103    0.07669274532307
H         2.83725760347163   -4.23679537945527   -0.01430917201360
H        -5.09623023476808    2.11455064151625    3.63757854701268
H        -5.74895350134449    2.41544095822314    2.01549535531549
H        -4.02991667434508    2.07400822518695    2.22364640382671
H        -6.67064671555047    0.20065028622759    4.09928373675028
H        -6.86184338481633   -1.10161608211834    2.91501890892390
H        -7.47137022096697    0.52192981964069    2.55345245006668
H        -5.03708929444160   -2.71655201816137   -0.69725355230909
H        -4.21861361657906   -1.24316883629414   -1.29822043724906
H        -5.98993108720487   -1.27248167266678   -1.16579894538621
H        -2.04408327349097   -1.95744748739361    9.04651449343400
H        -3.05166848991255   -2.87964028708348   10.17930131306744
H        -3.81127954481733   -1.93093519365798    8.88943639744267
H        -1.52134420045082   -5.42684623189111    7.83363439280326
H        -1.74104352153031   -5.03817403536637    9.54286293133937
H        -0.74284193747251   -3.98492657336336    8.51430424606644
H        -6.91201309547767   -4.70538213405095    6.80280622364214
H        -6.79912765856338   -4.71116087969769    8.59005799597191
H        -6.15217661842018   -6.08063697302910    7.66468484611085
H         2.74843579814912   -0.32888101175201    4.85835126316087
H         2.62875083892437   -1.88149565720273    5.69871992692667
H         3.41881942656948   -0.50678135867785    6.48735884098038
H         0.23590613961097    1.45947140282036    7.00925146913551
H         1.32623227635207    1.64658393760352    5.62917496831984
H         1.98799380061618    1.49490736798080    7.26409105447863
H         2.88069912644069   -0.89942335757439   10.45942737101173
H         1.98259799876618   -2.34496508465435    9.90492829709781
H         1.09116775852912   -0.90990043055819   10.45836991715829

