77
CSD_code = NIJVEH | q = 1 | S = 0 | Stoichiometry = C24H44CuN4O4(1+) | MND = 4
Cu        6.45913596369232   -0.27515657905592    3.71502979107843
C         6.46720745353823   -2.20294754152467    3.67043269702328
N         6.78954863564784   -3.28238352190754    3.40578040653507
C         7.26672434195065   -4.53342659619486    3.03340733091777
C         8.71384512859375   -4.43825425134816    2.46803568024263
C         9.14689820811438   -5.84409616957376    2.03611856024903
C         9.65371962367137   -3.90792937808418    3.55389509958615
O         8.80845126247009   -3.48996371547706    1.41305556546672
C         7.99111568857526   -3.68383719776991    0.27858732808595
C         4.79957235608953    0.52842260404604    3.32533274986917
N         3.80718253037210    1.03723563043375    3.02386252106296
C         2.63255851635885    1.66869317075566    2.63759042139251
C         2.17128635869653    2.76154695779999    3.63701362068770
C         1.06273502915915    3.56917174170100    2.94931876913488
C         3.34468332676371    3.67082478998244    4.01869151088461
O         1.68313444707872    2.01252146947718    4.74478452140959
C         1.15130059330959    2.74089756578826    5.82961599593316
C         7.80219405128349   -0.09894527905385    2.36101152899365
N         8.66972379820489   -0.23359508084009    1.61031251322394
C         9.77095911041295   -0.35062586134272    0.77573478709773
C        10.94392115655377    0.56316049468757    1.25334353565347
C        10.47904871288724    2.02130416868904    1.28913480501637
C        12.10033021588737    0.40325837842980    0.26282071338230
O        11.29065808157022    0.25256375274431    2.59018160197723
C        12.03721188938534   -0.91990906207238    2.82265606926095
C         7.00562616071810    0.41701848034273    5.38721708946607
N         7.09787230904734    0.94605164462956    6.41153022028437
C         6.99979114180518    1.65356743607524    7.60182395928033
C         5.92115830504712    2.77655980053242    7.46191805232133
C         6.48924925586853    3.91344691029515    6.60839894362879
C         5.56689226440608    3.28298041044431    8.86230075125855
O         4.79744978193069    2.31303906040420    6.73396528505938
C         4.02118016289557    1.27127415222393    7.28597250644530
H         6.58855895830674   -4.95445372807010    2.28474884797565
H         7.26969974088961   -5.18656605876190    3.91000243114403
H         9.28310545565656   -6.47297872606266    2.91085230735636
H        10.09248559589933   -5.78252019362501    1.50326257664414
H         8.41146962525522   -6.31543399049685    1.38865566361569
H         9.58699444873596   -4.51729600906085    4.45034279563584
H         9.39780924280429   -2.87944553354839    3.79856900949445
H        10.67723909923096   -3.93364696818108    3.19155949185430
H         8.08532390829676   -4.69105322550399   -0.13279300569213
H         8.34188583376781   -2.97034880527350   -0.46515393464876
H         6.93869464574441   -3.47092701025007    0.49444449173152
H         1.84511118290427    0.91163158747390    2.57423601564956
H         2.79599709344318    2.11133434129508    1.65105035151440
H         1.43926586193376    4.01574537465176    2.03334872215305
H         0.71761389801925    4.37176826778215    3.59487177701386
H         0.21839343465921    2.92633627287933    2.71112357821933
H         2.98288093908929    4.56810515636886    4.51372071906202
H         3.88863534943461    3.97191300098317    3.12705442080320
H         4.02119824895533    3.14968067718304    4.69310591548066
H         1.90372435715607    3.38475873983938    6.29239659140765
H         0.82805274161282    1.99146415234665    6.54988994690410
H         0.28597645215874    3.34036738579809    5.53524638062854
H         9.47796324988647   -0.06702391061685   -0.23845219016743
H        10.07463570951358   -1.40201726696455    0.78532578271498
H         9.69691973048033    2.14293497732654    2.03412234449367
H        10.10534477793197    2.33280482731953    0.31787266077832
H        11.31404699026832    2.65680632109534    1.56847990336788
H        11.81904673878238    0.81793992349087   -0.70102522274179
H        12.36997669850454   -0.64093625409665    0.12419116799445
H        12.96885054290331    0.94501946827963    0.62870014728818
H        12.05173723528405   -1.04259843486923    3.90419106597691
H        13.06590167830774   -0.82676738567720    2.46268034820126
H        11.57418770801326   -1.80268465225442    2.37138931107091
H         7.96779213525685    2.10210530913469    7.83634360373026
H         6.73189398224650    0.95349334206899    8.39929019460942
H         7.35731206754306    4.35825842862862    7.08561539482545
H         5.72944153030072    4.67791334208546    6.47565227140501
H         6.76884590027044    3.53678990529425    5.62727730647115
H         4.78155863143247    4.03097571113140    8.78875030093946
H         6.43905454302203    3.73898930812478    9.32177739023360
H         5.22136539138830    2.47664168324914    9.50469213648886
H         4.61405813617224    0.37434799880405    7.48875631023405
H         3.28205634768888    1.03452040069706    6.52296249212241
H         3.50882829868509    1.58388386470673    8.20009725473402

