80
CSD_code = NIJVAG | q = 0 | S = 0 | Stoichiometry = C39H37IrO2S | MND = 8
Ir       10.36664687338184    8.23134446470607    8.56495652052502
S        10.56935606481241    8.91370786262664    6.24200143204348
O        14.05125064711444    7.94561809359975    9.37979466225340
O        13.46483542541780   10.08827914134582    9.73889522554454
C         9.72788686322845    6.03350339031511    8.41968521127053
C         8.59641525635081    6.86427105137083    8.78235446276602
C         8.85570012323609    7.43640189011401   10.04602221536076
C        10.20450731967922    7.06641613667053   10.41785690121262
C        10.68472350466589    6.11530707326500    9.43663748951339
C         9.76193674690841    5.13608845505139    7.22408115075737
C         7.29339690869523    6.88868822051848    8.04663571854726
C         7.89013180836169    8.18033529521343   10.91467741580253
C        10.82199146883960    7.24528530249218   11.77063491134226
C        11.95570948519179    5.34167858079812    9.57215410675830
C        10.16933234776774   10.23389532165893    8.88544517045568
C        10.31635632861995   10.79990231688544   10.15134857745811
C        10.14552447984247   12.15363669243819   10.37548947183496
C         9.82949911178386   12.99249080328424    9.32112090615172
C         9.70271306073018   12.46579754297645    8.05123297308882
C         9.87915949702164   11.10280731926115    7.82466680429357
C         9.67986733997748   10.58460564732850    6.41793645290221
C         8.23165406046091   10.21470984746558    6.17038587627078
C         7.21695663573832   10.67704797409654    6.99960390737415
C         5.89958441129060   10.31686477338353    6.77207023755979
C         5.57061712121233    9.48665119204494    5.71572205659756
C         6.57330347153262    9.01695187282703    4.88473174009752
C         7.88893578646662    9.37667288647905    5.11096701146061
C        10.28790327567832   11.50246904083322    5.38692173663493
C         9.68945170638269   11.76280643747599    4.16026266486910
C        10.31889537772250   12.57018245945269    3.22826558431308
C        11.55340544487879   13.12936725792678    3.50487631973067
C        12.14852802329410   12.89253117945223    4.73233649870130
C        11.52079611291301   12.09086925914028    5.66534880372538
C        12.26183429163378    9.22450871251375    6.84472187880521
C        13.29170408740443    9.65383281498866    5.91848247649331
C        13.07556527794398    9.61341186151665    4.54063098393593
C        14.05031672132304   10.04017941042051    3.66143174647348
C        15.26093924977569   10.51338094396256    4.13914642810519
C        15.48980847884840   10.55214744141799    5.50543155839870
C        14.51777497237537   10.12813977108546    6.38904437010820
C        12.25360658481056    8.90178196075151    8.14739383406745
C        13.35950396722934    8.90092518206219    9.10565062077262
C        14.41229955894415   10.14744853141383   10.79178398106328
H         9.27390146313395    5.60401551072460    6.37052194867057
H         9.23869894343357    4.20194156092071    7.43926163181905
H        10.78517387005334    4.89771698272979    6.94164016460217
H         7.44830027808365    6.84417067195197    6.97010157744585
H         6.73523450477965    7.79668789348303    8.26544056531358
H         6.68184541557573    6.03136084040973    8.33557707141781
H         7.06855558814234    8.58273033536059   10.32731351925372
H         8.37698086655344    9.00682511326702   11.42794286964521
H         7.47750986150271    7.50631839262433   11.66771726447652
H        10.46525859557113    8.15262668044200   12.25262914885455
H        11.90629797751030    7.28941503518355   11.69202405652503
H        10.56317733367698    6.39870873981573   12.41039059452220
H        11.92413910683068    4.73173700763041   10.47603665894255
H        12.81571489838700    6.00782474086556    9.64554463403854
H        12.10586051420717    4.68520441185807    8.71901203766384
H        10.58461717918894   10.16773455580642   10.98513175949543
H        10.26239168440280   12.55586649721591   11.37180220183564
H         9.68837950974503   14.05090837585004    9.48342068859396
H         9.45980381212824   13.11488581157627    7.22087336871730
H         7.45380232654778   11.32013846467363    7.83241937441793
H         5.12659979364905   10.68696130887516    7.42987814070151
H         4.54296699943844    9.20362731223670    5.54277783565808
H         6.33134795327525    8.36505705430641    4.05787866060729
H         8.66229452767655    8.99271073520609    4.46097866259137
H         8.72104992588787   11.34657041018346    3.92844921421164
H         9.83785484688729   12.76119481228431    2.27999483238420
H        12.04494265290383   13.75233272782185    2.77255606791564
H        13.10815072507208   13.32903584044266    4.96535850034052
H        11.98658259765369   11.92174318814790    6.62435424755366
H        12.13261567840813    9.24706909049187    4.16161587210038
H        13.86406547850985   10.00541608939502    2.59800689476655
H        16.02260045342845   10.85010520609559    3.45166170945153
H        16.43246282938981   10.92004718543061    5.88399468051263
H        14.69659402806638   10.17179930700640    7.45131079832118
H        14.13296208078693    9.46052775921949   11.59378623997404
H        14.40204235384249   11.17367084382264   11.14979929118926
H        15.40729806593101    9.87557209414688   10.43075911980685

