100
CSD_code = NIJXAF | q = 0 | S = 0 | Stoichiometry = C50H44CuIN2P2 | MND = 3
I         5.29877686023707    5.17550451845556    5.25117006370470
Cu        5.30153453126677    2.68039587286349    5.25437766006966
P         5.59083393384271    1.51458487383731    3.34643303613016
N         3.26148001640188    1.20504635523129    1.86339515234362
C         5.79896604492558   -0.28503555055572    3.49816414391808
C         6.74988447610197   -0.68402326400273    4.43776910130731
C         7.00474712712965   -2.02256052904730    4.65203969271858
C         6.29325786646473   -2.98045946007923    3.94627028497788
C         5.32133623720596   -2.59066236185831    3.04153729540301
C         5.06609433608792   -1.24845021977219    2.81754717503220
C         7.17986675909237    2.00979020250885    2.59378080089233
C         7.40342583298989    3.37783269219972    2.46036611393396
C         8.56630532461621    3.84275382904271    1.87591134685294
C         9.51597530267410    2.94432108432276    1.41824439557754
C         9.29603355074753    1.58236434867325    1.54521166307647
C         8.13412780598919    1.11162878977933    2.12989522308069
C         2.51151401896739    1.49763373850716    3.00886330128112
C         1.60966928100774    0.55071773518420    3.50046141180874
C         0.88683397443619    0.80501575311290    4.64929552412154
C         1.05302045025825    1.99912236039072    5.33452113697578
C         1.94872313599954    2.93894935482767    4.85682889253892
C         2.67636968569550    2.69371373430237    3.70542362288172
C         2.63446894397432    0.69488766822772    0.72223493487360
C         3.32752160256621   -0.05487923128809   -0.23008268269936
C         2.67552450130394   -0.55510302158770   -1.34174089017698
C         1.32517792289431   -0.32458824473260   -1.53356380734326
C         0.63030999576819    0.42517814631721   -0.59872553904245
C         1.27351611541626    0.93347841657485    0.51107178882119
C         4.59335394810111    1.74274198901380    1.78014876707481
H         7.29950741324756    0.07201565103028    4.98629081991831
H         7.75494839480778   -2.31905265587077    5.37009313532743
H         6.49156566813654   -4.02947166600529    4.10890617762659
H         4.75591210689122   -3.33636172478804    2.50129926352958
H         4.29679752913235   -0.96441621956751    2.11829634499941
H         6.66949163557374    4.08155032306078    2.82704707622504
H         8.73196857021678    4.90568880107273    1.78409170561305
H        10.42814332952538    3.30396303481375    0.96531404263940
H        10.03474443130834    0.87934418076375    1.18762221036656
H         7.97496453028950    0.04703326212327    2.22667905052101
H         1.48200975170575   -0.38162450800342    2.96900053474944
H         0.19470892571929    0.06207271426624    5.01856139315079
H         0.48698641263236    2.19591677925924    6.23184866311778
H         2.07610581439520    3.87798903327931    5.37368946887684
H         3.32829228065305    3.46324130331758    3.31991325844408
H         4.38079224846482   -0.26581090964290   -0.11420004327325
H         3.23344324025525   -1.13553513754813   -2.06208439842575
H         0.82169473011478   -0.71870232150747   -2.40276593474273
H        -0.42113425415928    0.62768902291434   -0.73985698146770
H         0.72424878118258    1.53198937744447    1.22248782482361
H         4.59467258123119    2.82896734228553    1.57848838108374
H         5.14323906292943    1.26585328805013    0.96371353019608
P         5.01106478990292    1.51714691403782    7.16340435076465
C         4.79944798861609   -0.28191566355367    7.01046828469361
C         3.84742184565337   -0.67818788729642    6.07084679333126
C         3.58992562205038   -2.01601341004803    5.85536136758292
C         4.29994714889586   -2.97587674380349    6.55993048841196
C         5.27293377431348   -2.58879032062288    7.46471610783391
C         5.53079823157918   -1.24727703045451    7.68996678438038
H         6.30102838003080   -0.96520653154715    8.38907519848185
H         5.83711813257301   -3.33616799066614    8.00393057825326
H         4.09957871584077   -4.02435939581934    6.39639757760562
H         2.83878815758180   -2.31030715597282    5.13738794945583
H         3.29902494506062    0.07940966693072    5.52331739550099
C         3.42300326980728    2.01480835376155    7.91634309911175
C         3.20106897518866    3.38321929698491    8.04866320843928
C         2.03844826285275    3.85000245536208    8.63216316325209
C         1.08745945363473    2.95306359842768    9.08999445631463
C         1.30586765628303    1.59074424134362    8.96429524398920
C         2.46748652502511    1.11813571562191    8.38054142536554
H         2.62536912343998    0.05327483841276    8.28455126772258
H         0.56616926858088    0.88888840157841    9.32214421781418
H         0.17548967482082    3.31415803324533    9.54215796615593
H         1.87399174983816    4.91321162392199    8.72296940238403
H         3.93595723664240    4.08575430310489    7.68160440080507
C         6.00967950604890    1.74183093861270    8.72932356319482
N         7.34232430084650    1.20665534966355    8.64174642679574
C         8.08909324523598    1.50462811860790    7.49532543095003
C         8.98913574163232    0.55969969654232    6.99678137263308
C         9.70952749757177    0.81945959911056    5.84760130489895
C         9.54265205901420    2.01727563935478    5.16913874795053
C         8.64842537111576    2.95505991560299    5.65354239347033
C         7.92307825592384    2.70425841923029    6.80519913813038
H         7.27198105873355    3.47193113986028    7.19584973022967
H         8.52039965303342    3.89676602741604    5.14174838411221
H        10.10701129410895    2.21846435526232    4.27174597646740
H        10.40023090185993    0.07796205947755    5.47281232835784
H         9.11741627123211   -0.37540330958426    7.52322444591852
C         7.97369774752306    0.69492295825330    9.77966237687841
C         7.28451496635348   -0.05583849239654   10.73401345565886
C         7.94122532056437   -0.55824781415926   11.84192309328938
C         9.29257721457786   -0.32904055396961   12.02804958065569
C         9.98360732297284    0.42206591047536   11.09144404420542
C         9.33569044805668    0.93263842090801    9.98546829477710
H         9.88216882963062    1.53228623349463    9.27287341287454
H        11.03578004411532    0.62383446667528   11.22817564779239
H         9.79976825258880   -0.72506928926395   12.89421497685328
H         7.38614330660984   -1.13938729968600   12.56388943189346
H         6.23056441902958   -0.26584992600764   10.62280810140606
H         6.00679205903336    2.82736132306189    8.93471019863617
H         5.46167321796786    1.26118224922323    9.54481228087932

