89
CSD_code = NIKBEP | q = 1 | S = 0 | Stoichiometry = C46H36MnN4O2(1+) | MND = 6
Mn       15.53090353463378   17.93352773235394    7.89107982378253
C        13.41209177367603   15.79522822302289    7.47600091403722
C        12.71539065723879   14.74697184690283    8.16124065190992
H        11.90312786814787   14.18034950884787    7.75245863434644
C        13.26518416230734   14.65109959886431    9.39489064792031
H        12.98976237023048   13.99108675123650   10.19260659340765
C        14.29902810327224   15.64120672923739    9.46776056970019
C        15.07788268322959   15.86936028543897   10.60259768799792
C        16.03145339198623   16.88401149353158   10.69579341920874
C        16.84295117765903   17.10850618958984   11.85464913475700
H        16.80686951744427   16.52592603309779   12.75312827467720
C        17.63777891392393   18.17010690416650   11.57871162639031
H        18.36211577003069   18.63646755893934   12.21567607055689
C        17.32907209989427   18.58469760708945   10.24324100639206
C        13.10552924839096   16.21391690253396    6.18086375663607
C        14.87215656119997   14.99259043311732   11.77383023100241
C        15.13903179177539   13.62886643726626   11.68789643253248
H        15.50821538172901   13.21642926652168   10.75981924439379
C        14.95232313430277   12.80998517805725   12.78658211224380
H        15.17003776072133   11.75533663039401   12.71159830156003
C        14.48552044069121   13.33994765573616   13.97808591758542
H        14.33614283155538   12.69914107351527   14.83322234464744
C        14.20937325680306   14.69435971630622   14.06837783041547
H        13.84137350426154   15.11101408466959   14.99369990162456
C        14.40642007412672   15.51881645489417   12.97572180216568
H        14.18407278216328   16.57390518166417   13.04213747805922
C        12.04016366176399   15.49188148777134    5.45384646398073
C        10.86561632654536   16.14702104626959    5.09408146424060
H        10.73461657940735   17.18662385440728    5.35820823284582
C         9.86606587262540   15.46858496162918    4.42097393685154
H         8.95654322530026   15.98412943454919    4.15250450534025
C        10.03117912006668   14.13363768150398    4.09054402761863
H         9.25241737824715   13.60725031812309    3.56087811627034
C        11.19860952458555   13.47642195954894    4.44201595074541
H        11.33315556863291   12.43699431989648    4.18394057109650
C        12.19590215057919   14.14837624257951    5.12504681967333
H        13.10926655980523   13.63781730411701    5.39406368598675
N        14.36878229394492   16.33718348212807    8.29232255934677
N        16.34461837399989   17.78961736189148    9.71793490253303
O        14.04097475657927   19.29236887819107    8.72295723287283
H        14.33684919039221   20.21255317458553    8.80366561380556
C        12.65625847881430   19.30907266154988    8.38419441989874
H        12.49186321385354   19.76672649470430    7.40458652841673
H        12.09633689894390   19.85617241167802    9.14717901378181
H        12.31466634123423   18.27502411431960    8.36317969186512
C        17.65016868107681   20.07141039200269    8.30586935106138
C        18.34673472920887   21.11978855662935    7.62068181378285
H        19.15931536702636   21.68609202260789    8.02927584951427
C        17.79633309620829   21.21625615329408    6.38734799070576
H        18.07148031559312   21.87653453847228    5.58975773885750
C        16.76229938463697   20.22633982455128    6.31459970457842
C        15.98320086595773   19.99837244320810    5.17988118935918
C        15.02980422342156   18.98357558797722    5.08664432758475
C        14.21840622183105   18.75897849004197    3.92773519813742
H        14.25413984759721   19.34186547468370    3.02944036196703
C        13.42422507938949   17.69681358751137    4.20333861284597
H        12.70017120727933   17.23020816765981    3.56623164010060
C        13.73315856074704   17.28200876444814    5.53869235878113
C        17.95691012900336   19.65258337914549    9.60091676331575
C        16.18893649970768   20.87512912262123    4.00864127594273
C        15.92217696101901   22.23887301256944    4.09460771725226
H        15.55307749964395   22.65132691322894    5.02271039434166
C        16.10888993782395   23.05774913213533    2.99591912444674
H        15.89125905839026   24.11241292701838    3.07092724686454
C        16.57560263993119   22.52776920524371    1.80438774436017
H        16.72499456812826   23.16857716492898    0.94925504118275
C        16.85165402839880   21.17333946919237    1.71406774399997
H        17.21958392930214   20.75667053133649    0.78872413360631
C        16.65460294603898   20.34888885170990    2.80672719288703
H        16.87689103826913   19.29378845807044    2.74029295253554
C        19.02225641107620   20.37463336715458   10.32794380172061
C        20.19674657880293   19.71945713875355   10.68782509854290
H        20.32770720126642   18.67982948391857   10.42377817442989
C        21.19629071488678   20.39789296922772   11.36094222986041
H        22.10577510565053   19.88232359046264   11.62949173520630
C        21.03122173370259   21.73286624946675   11.69128953955186
H        21.80997829427938   22.25924555144282   12.22097089203974
C        19.86383973544443   22.39011519006449   11.33971829529648
H        19.72932739759443   23.42956398775653   11.59772672599085
C        18.86655502718896   21.71816199869345   10.65667582036234
H        17.95322009279479   22.22874351051139   10.38759919315379
N        16.69298449276708   19.52993485265162    7.48979681674713
N        14.71714778631894   18.07750604260931    6.06425199882299
O        17.02080650486872   16.57465638200334    7.05922114739154
H        16.72487926156452   15.65449097684793    6.97849425530267
C        18.40553351498697   16.55787125243313    7.39792885773526
H        18.56994338157384   16.10019720591003    8.37752513723568
H        18.96538879639882   16.01074614550008    6.63491533032736
H        18.74718684647751   17.59189926785259    7.41893733715360

