84
CSD_code = NIKDIX | q = 0 | S = 0 | Stoichiometry = C41H40IrPS | MND = 8
Ir        3.17990205937675    2.66131495901172   10.29819555671079
S         1.01229606457809    2.98072728689612    9.31425414953557
P         3.67087033272742    4.65965626783778    9.36383171076718
C         3.99018982951540    0.85991556973785   11.41000615950984
C         2.62573530576704    1.07900798285365   11.75444662505148
C         2.54151656809094    2.33283865088674   12.46344619992943
C         3.82332890847094    2.90497056401019   12.49576080022240
C         4.72777388385344    2.01865146036708   11.79896995574531
C         4.56821982217201   -0.40217352054869   10.85143646972027
C         1.51510539590005    0.07832147556096   11.72051029055988
C         1.32103603012573    2.81944453159561   13.17788462507657
C         4.22372169591560    4.11349771810609   13.28508231807105
C         6.21971677023898    2.15204762978325   11.78975135345170
C         3.62066791669491    1.98964967673662    8.41026149940390
C         4.94456948081039    1.77561666961728    8.03249968892344
C         5.27432333634866    1.29561577284954    6.77684943914679
C         4.27451683390399    1.03692487991069    5.85589439865715
C         2.95476874057802    1.24532822930287    6.20681231273063
C         2.61914331629570    1.71280235244423    7.47401455876212
C         1.15905498332048    1.85260448798636    7.84120006531245
C         0.55878216423358    0.53320855176976    8.26797708901627
C         1.27324419381969   -0.65696097100699    8.24818439548422
C         0.68082225819837   -1.83835209760538    8.66545748816828
C        -0.62908330893755   -1.84745173197060    9.10821629137075
C        -1.34746622635429   -0.66225863242902    9.13633310804881
C        -0.75782711693360    0.51524329123745    8.72177577034040
C         0.40873671203213    2.48703782478988    6.69128966014220
C         0.61026440371238    3.83261818775218    6.40801394765629
C        -0.01967974076203    4.43166794542976    5.33466245125935
C        -0.86040160048446    3.69131178156179    4.52025906435445
C        -1.05994748827411    2.34900352779996    4.78810904434322
C        -0.42772692695021    1.74839487779983    5.86339849913352
C         5.42446456971253    5.11966033729862    9.25415745919982
C         6.07619464619737    5.67436231502340   10.35124290276571
C         7.43330606767064    5.93391059083935   10.29769060578057
C         8.15192708583790    5.63067114826578    9.15204725803021
C         7.50883318913514    5.07479091953937    8.05752896349454
C         6.15090627605716    4.81794777624970    8.10636299850195
C         2.90716847908260    6.15691020618721   10.05953940481382
C         1.85343434799357    6.02843318533344   10.95577048002748
C         1.26415495652165    7.15531205619952   11.50116831166468
C         1.72568804430495    8.41386095920340   11.15341466639707
C         2.76995717387736    8.54657260318804   10.25072582765551
C         3.36056783049789    7.42394253396115    9.70195253562284
H         3.36614240905804    4.86095535916564    8.01554295648634
H         5.35939890955107   -0.19427067432741   10.13310242907193
H         4.98883912141073   -1.00582096553810   11.65841115645130
H         3.80288562794978   -0.98839404764291   10.34817654389826
H         1.72157500499939   -0.72439715213856   11.01742131275935
H         1.38087649340894   -0.35721472338974   12.71331862475242
H         0.57734924985869    0.54796724894669   11.42782812955058
H         1.44625294092752    3.84767635549399   13.51020571082653
H         0.44483196108635    2.76455507629813   12.53269545660934
H         1.13062293269696    2.19616106406085   14.05412204623905
H         5.25103143090004    4.39475501334112   13.06660927340274
H         3.57680572756432    4.96608193226635   13.07497288697711
H         4.15286204534336    3.89478187376584   14.35271768428654
H         6.66564595402926    1.45950331136571   11.07942434897484
H         6.52922755667100    3.16250488338340   11.52020807466424
H         6.62234955986168    1.92646719745784   12.77981269829982
H         5.74179037960661    1.99490626370103    8.73099050104882
H         6.31123722261473    1.13464404155923    6.51634038479201
H         4.52045225232875    0.67244402463205    4.86916688384373
H         2.16830348751500    1.03681114603449    5.49524447261178
H         2.29747944544013   -0.66694668732006    7.90600315885502
H         1.25055185166372   -2.75724755203061    8.64241565747081
H        -1.08833785896989   -2.77032123247534    9.43178739985115
H        -2.37066543533660   -0.65806138790040    9.48378775332583
H        -1.30933172142484    1.44398530597798    8.75336367775175
H         1.25644984130961    4.41093925795969    7.05377802028498
H         0.14503301327724    5.48030269600836    5.13264374873243
H        -1.35611933022460    4.15802133968241    3.68144932304375
H        -1.71050531673926    1.76116829972692    4.15633393898807
H        -0.58735554270167    0.69719953183803    6.05584025219671
H         5.50591086805461    5.91671117097202   11.23744672651289
H         7.93389454375523    6.37108941133599   11.14976998569080
H         9.21258345241881    5.82997791158728    9.11262850282655
H         8.06850171610821    4.84196030572419    7.16357361833938
H         5.64153385230375    4.37962362559865    7.25925838390655
H         1.49169509389081    5.03957668953911   11.19877377893497
H         0.44368838086023    7.05281218340062   12.19616205676445
H         1.26936761897319    9.29446848272891   11.58109530190622
H         3.12283743170155    9.52937395790934    9.97394578610307
H         4.17583056338648    7.52274962993351    8.99804495241360

