47
CSD_code = NIKGAQ | q = 0 | S = 0 | Stoichiometry = C16H20N2O6RuS2 | MND = 6
Ru       -0.46112887585709    2.62440951840861    2.97513846457394
S        -2.27313407889768    3.40476220855861    1.85829322010162
S        -0.87915711948133    0.42209457856303    2.54810099625261
O        -1.65741967055993    2.19199687384461    4.62393036620354
O        -1.46534199213192    1.79100208692472    6.79936288287131
O        -0.15024929908894    4.63959235752430    3.45751118460875
O         1.05320851690978    6.38904819022084    2.80339934988438
O        -3.12285586221371    2.47396894853982    1.12519195926541
O        -0.40202550096392   -0.13157122152432    1.28487212722954
N         0.99636654703659    2.26440754620555    4.31010103578784
N         0.75742605560704    3.11832604128978    1.47878676530654
C         2.31519868621681    2.34858969054065    4.13918534043496
H         2.67472212631169    2.35525859900233    3.11661191549649
C         3.20084009397709    2.41342747235055    5.20039752738451
H         4.25931403532846    2.48952808865554    5.00854000196845
C         2.70690538972220    2.38824595886901    6.49712425696486
H         3.37359922823674    2.45072348628496    7.34321851452912
C         1.33860413666640    2.27933848049353    6.67432784047385
H         0.87538420884965    2.24078963345270    7.64806350182254
C         0.51542091941270    2.22719539230971    5.55978263702933
C        -1.00525065842598    2.07084086236552    5.70661347572679
C         1.14133612770895    2.35718525668164    0.45427176593329
H         0.73317108053158    1.35344201466010    0.42406331214110
C         2.01119696293956    2.81318939279976   -0.52182055045559
H         2.29076483559547    2.15739976033127   -1.33073148436079
C         2.50966476525647    4.10634354725499   -0.44298867682624
H         3.19289694597036    4.48407994242258   -1.18784881215033
C         2.09989131783069    4.90031733560694    0.61536028129852
H         2.42979086238289    5.91928360731999    0.74605856213598
C         1.22512555359326    4.37455459478038    1.55267125296712
C         0.69211040850046    5.23008727899414    2.70606794700930
C        -2.01749352690386    4.82468840569733    0.73732185986223
H        -1.41954668723373    4.48644850847625   -0.10335837435089
H        -1.50619900060651    5.61158577120231    1.28066385403705
H        -2.98902640001262    5.15574501429380    0.38824174239656
C        -3.30077002182066    4.24846565418186    3.08276026786711
H        -4.18040613944565    4.66289640218773    2.60413890424589
H        -2.67924056955404    5.01414848584556    3.53595594264399
H        -3.57566214392742    3.51120088216494    3.83078372208798
C        -0.20558124176361   -0.68178014587208    3.84168697846885
H        -0.45234366918981   -1.70432130865641    3.57916162709408
H        -0.64541739118235   -0.40539377056996    4.79361158829918
H         0.87280861217968   -0.55589664306837    3.86595891682036
C        -2.61397157534799   -0.05481041524670    2.72402323625827
H        -3.17116310675764    0.48323650179039    1.96264048092812
H        -2.93239126903647    0.25043774813726    3.71449419768652
H        -2.69737161631032   -1.12540861429718    2.57975809404461

