46
CSD_code = NIKKEZ | q = 1 | S = 0 | Stoichiometry = C18H23ClN3Pt(1+) | MND = 4
Pt        1.66361044940410    6.44494868358068    0.89693504759375
Cl        2.09609644074461    5.57073185130900   -1.13243288243415
N         0.92226104518036    4.77914940225653    1.65385270166827
N         2.26383769420103    8.26627266794992    0.43502381990846
N         1.21487292582836    7.29221581526815    2.75973499749965
C         1.06767168816018    3.52874518337621    1.21637299023261
H         1.59120376713904    3.40895030158277    0.27643525180298
C         0.56963375066809    2.44163481839400    1.91362740756223
H         0.70158199158059    1.44687018162908    1.52167479192497
C        -0.09378040092063    2.65944378995547    3.11047628947469
H        -0.49339490439085    1.83583262505934    3.68045828026266
C        -0.23661178014803    3.96226830510836    3.56689109608571
H        -0.74884197353607    4.16722500337461    4.49379746904537
C         0.28099853922848    5.00570486780124    2.81706815034788
C         0.09835620764098    6.45184369339155    3.22594133755118
H        -0.05057235066230    6.52669098497788    4.30663223671112
H        -0.82349861899732    6.80327654085042    2.74619151333261
C         0.83268027032490    8.65860513547119    2.36046083835234
H        -0.16643471490464    8.63330504274040    1.90842379407844
H         0.79554833783433    9.34142773669182    3.21699801109731
C         1.79340195140408    9.17702676651694    1.31082879785791
C         2.14642406611212   10.51228510772568    1.21907684906036
H         1.75853923311441   11.22275559552967    1.93188776153734
C         2.99504930464080   10.92196707562676    0.19920924038615
H         3.27709438501108   11.95892647975044    0.10968397659643
C         3.46962597548711    9.97555244109963   -0.69440699196140
H         4.12827730941448   10.25097369838515   -1.50127837237426
C         3.08379280784842    8.65453893290156   -0.54047641599788
H         3.42388097862138    7.88056970259290   -1.21670371495871
C         2.39134295701006    7.32806472714455    3.66733143324563
H         3.04279805689847    8.11467930371911    3.26505164460535
C         3.18489561434693    6.02056832244668    3.63052843100007
H         3.41191877185762    5.74670364721891    2.58675079955779
H         2.60579728416283    5.21391165409980    4.08566750453324
C         4.49510003604141    6.19508823835318    4.39833464076000
H         5.05222389475129    5.25840986726820    4.38219097109934
H         5.10585185455531    6.95398419703765    3.90531904101444
C         4.22466060247039    6.61589484627501    5.83981463430817
H         5.16926057009267    6.77786427551693    6.35817073823489
H         3.69282659309572    5.81669680331665    6.36002379668869
C         3.38905829093239    7.89145946594691    5.87889113991067
H         3.17316196579944    8.16308364407672    6.91240795811917
H         3.94997063634004    8.71296147142065    5.42852197471481
C         2.07589273695530    7.68654333049133    5.12282519150296
H         1.53139677804811    6.87610555206713    5.61022955711813
H         1.47033898061970    8.59314222268969    5.18285627134954

