91
CSD_code = NIKKUO | q = 0 | S = 0 | Stoichiometry = C33H51I2N2O2Y | MND = 6
Y         1.72335338558688   11.36534417073336    7.90573390008153
I        -0.02244581742788   10.27285465906879    9.91047258852335
I         4.39265469095176   10.53316841915843    8.52768308256210
N         1.85599822396593   13.40468613662545    8.84694747678511
N         2.27841812319960   12.47705799147628    5.98837481136299
C         3.02821953929493   15.54048605510450    9.24993486342802
H         2.31884330749561   15.66839868541440   10.06384466073755
H         3.01669681897483   16.43080148989922    8.62374488616832
H         4.02917617767203   15.44031358205343    9.66759459592069
C         2.70845615393854   14.31781541802225    8.42091544749452
C         3.35677249550484   14.27765665544747    7.17948046709781
H         4.08842570842156   15.06153137184180    7.03927812929419
C         3.12619925423797   13.49674334275334    6.04643614612222
C         3.91265687446686   13.91910763822944    4.82522578537255
H         3.46225183507776   13.55018709948751    3.90684599448140
H         4.92275456470617   13.51625341929903    4.90376675152457
H         3.99323591614298   15.00270780920550    4.77239507784448
C         1.17034598472900   13.60382030768075   10.08040342303298
C         1.80396937443031   13.40480077890019   11.31818511651084
C         1.06713240043983   13.59350359827213   12.47947059677597
H         1.54055531635236   13.43523091980833   13.43566227715401
C        -0.25666123224167   13.97930282720607   12.43522797251255
H        -0.80877229852554   14.13096460986339   13.35025949718254
C        -0.88056178199492   14.15364919351582   11.21485588027061
H        -1.91913223616649   14.44068968868047   11.19138864839781
C        -0.19029478719473   13.95444952225924   10.02971912120443
C         3.24226789448234   12.95254296906694   11.42702762696204
H         3.69336288931976   12.94111189382956   10.42921534131982
C         3.30105498659940   11.53154946158327   11.99472999299519
H         2.70748432258290   10.84717079094421   11.39243440385177
H         2.91347112549755   11.50599913065695   13.01021841808175
H         4.32896840906218   11.17667021359689   12.00180334917497
C         4.07045546550364   13.89345759055386   12.30633948571279
H         3.95945043264532   14.92900928952713   11.99251418812191
H         5.12163015278542   13.62151915170233   12.24179104441889
H         3.76636180320987   13.82077827059340   13.34742748714530
C        -0.87589055721089   14.12001271329920    8.69020593582124
H        -0.40831331138859   13.41043684790147    7.98364297094708
C        -0.64999796638571   15.53652975795062    8.15312332288616
H         0.40834349642291   15.72314449919877    7.98654204866649
H        -1.02282587121608   16.26930026867524    8.86626296404408
H        -1.17561185259002   15.67337819146729    7.20976757216067
C        -2.37129412437476   13.80483597196526    8.73948962300816
H        -2.55037491591191   12.86238507426334    9.25358234333441
H        -2.77014596988886   13.73583138609636    7.72793697875419
H        -2.91885884055249   14.59066156872528    9.25394017912117
C         1.92225161448951   11.95814846790119    4.71203920835883
C         2.69975982159621   10.98466077841762    4.06129190997338
C         2.24392747875459   10.45838279564051    2.85862106275618
H         2.82864939466614    9.70193069581450    2.35754321049785
C         1.06848808841114   10.89763253529718    2.28341932941532
H         0.73483124185986   10.48177854856709    1.34422565343396
C         0.33359375767872   11.89121351346468    2.90299060115430
H        -0.56428908400277   12.25454141220571    2.42858971225667
C         0.73967990531892   12.43204237584633    4.11301041228984
C         4.02611841080260   10.51121476253635    4.61223709168957
H         4.26826826720428   11.09562015445012    5.50415863923415
C         5.15238602181973   10.72458115145591    3.59626728295949
H         5.15288908610436   11.74385513036770    3.21730173540267
H         5.04897506229744   10.04887005349226    2.75071643657377
H         6.11200924018425   10.53051103251229    4.06976935752819
C         3.96547068113963    9.03531642762591    5.01173923144360
H         3.19598469187809    8.87219452055099    5.76277085776945
H         4.92066491206719    8.72917189793785    5.43226260675830
H         3.74781318450893    8.40756654114393    4.14949340434074
C        -0.04523362701538   13.55560915385281    4.75386725967547
H         0.13478977052530   13.51966076884335    5.83570421864322
C         0.46059870696629   14.90721550285649    4.23805938909200
H         1.49393985714537   15.07197434672858    4.52823884932931
H        -0.14216942319888   15.71454557326742    4.64947969688782
H         0.39481539233293   14.94420063385429    3.15197546416061
C        -1.55192246000679   13.45277622633255    4.51425621641120
H        -1.90794310419380   12.44133207560594    4.68920343662158
H        -1.80622596983965   13.73981364888488    3.49633121130998
H        -2.07890199434459   14.12675930067035    5.18723956086515
C        -1.73030297710564   10.50814911575187    6.71333066111239
H        -2.38286585924223   10.39805563341462    5.84038183428512
H        -1.91045321756924   11.47231829890780    7.18409741761029
H        -1.96036285833448    9.71592191253166    7.43087885760321
O        -0.36590531532593   10.48470508168768    6.31097041378783
C        -0.02209134166594    9.29212538394973    5.62190538228365
H         0.82611169156123    9.54213924262589    4.97714224843845
H        -0.85866563238776    8.95935056534490    4.99700406454014
C         0.38760426878101    8.17570338182085    6.58087272266283
H        -0.43352420938903    7.92526828033989    7.26912454270426
H         0.64571281026227    7.27689277203689    6.00287934195168
O         1.51144934893168    8.61588393916445    7.32320167964101
C         1.98367887338671    7.59123525115508    8.19092806907207
H         2.28319015936737    6.71264120568173    7.61052251219654
H         1.21028211471801    7.30617952638821    8.91085567631082
H         2.84753765824438    7.98305995147754    8.72345905459218

