81
CSD_code = NIKNAW | q = 0 | S = 0 | Stoichiometry = C48H24N8Zn | MND = 4
Zn        6.59942303013603    6.09995170947907   11.02517197683950
N         5.01641998894529    6.76382466115157   12.10446103130549
N         6.01978393926352    7.25724081668102    9.46477019286761
C         6.61674818332247    7.33070948957696    8.24459541385108
C         7.77269874757656    6.65497884586612    7.85653348488737
C         4.70973082824579    6.42719468273886   13.38640955228836
C         3.51061186921466    7.10460607370464   13.79529213569449
H         3.03778834830803    7.00748952718110   14.75277217625703
C         3.11126527197931    7.85977305335149   12.74601829726141
H         2.26370802578515    8.51438936136164   12.69256546740675
C         4.05642029033776    7.63313536950759   11.68797784982794
C         3.99072921845024    8.23949380866311   10.43422564219233
C         4.91160879809873    8.04403637713812    9.40569082222953
C         4.79292762338486    8.62244843416972    8.09583264105876
H         3.99705589455466    9.26262061675228    7.76936587355966
C         5.85028502761577    8.18085233826517    7.37637815199300
H         6.08260843163396    8.39221650783109    6.35108041835240
C         8.26950496131135    6.88506190613496    6.48286915544421
C         8.28777538365387    5.84489533708462    5.55562975338948
H         7.92661449556139    4.86978572171388    5.84744337084846
C         8.74806609737197    6.05542065972636    4.27196268801499
H         8.75685076886427    5.25044719559736    3.55198324762272
C         9.20629139968738    7.31981381372225    3.89916896347928
C         9.19294938978310    8.36653344777648    4.82205953174231
H         9.55092287590635    9.34220759785639    4.52819353128971
C         8.72367641656156    8.14588535295460    6.10079371383891
H         8.71564895655436    8.95127339473779    6.82031360768461
C         9.68399307841349    7.54007937542552    2.58687613751600
N        10.07242642612260    7.71811211442314    1.52318474539122
C         2.85520505801467    9.14862418687054   10.16975807797199
C         3.07858278057573   10.50185449748951    9.92259429677632
H         4.08929313807966   10.88222832399265    9.93686703248989
C         2.02296350465406   11.35513327535468    9.67450109956423
H         2.19620339950554   12.40473083576049    9.48800274177699
C         0.71880307851757   10.85851869875183    9.66393022265030
C         0.48640554547277    9.50413736843151    9.90733032100737
H        -0.52479258688479    9.12499633706353    9.89448076074912
C         1.54940682401856    8.66161989483379   10.16048943601341
H         1.37532813587736    7.61132744191614   10.34221010876335
C        -0.36651408833891   11.72674094123766    9.40498290690415
N        -1.24690134146745   12.42957776685747    9.19284293628366
C         5.42613469426264    5.54490502974791   14.19376168161834
C         6.58217383493382    4.86925507936727   13.80576086727086
N         7.17913205875799    4.94270157982616   12.58557914455528
N         8.18236282440642    5.43603436584465    9.94581213560740
C         8.48896892468636    5.77253825126362    8.66380820890180
C         9.68789356288308    5.09488920353498    8.25480015656811
H        10.16057531987264    5.19181188152193    7.29723253295644
C        10.08725706347603    4.33974944396398    9.30407893932619
H        10.93467974633514    3.68495325313412    9.35737942526612
C         9.14231002863355    4.56666917999641   10.36225855121468
C         9.20820523296877    3.96052315094718   11.61612686999885
C         8.28737389769776    4.15597791066265   12.64468122389623
C         8.40609664980407    3.57761515854823   13.95454628479473
H         9.20200918433626    2.93745817710794   14.28095698712580
C         7.34871965507906    4.01918619069126   14.67399960486289
H         7.11642023371437    3.80783164000086   15.69930651721804
C        10.34410211431756    3.05168315504192   11.87998993001500
C        10.12154054395548    1.69824441796769   12.12666096823225
H         9.11094203453423    1.31752394454577   12.11367788307983
C        11.17786788783160    0.84508705659419   12.37224881708956
H        11.00527677302696   -0.20474508861680   12.55802706680043
C        12.48189757262203    1.34205928865442   12.38084386048429
C        12.71343521979341    2.69679708541802   12.13856269010714
H        13.72453422672579    3.07624606457117   12.15003373128473
C        11.64974702368379    3.53917387678078   11.88792480007875
H        11.82316456140054    4.58968547341887   11.70684274521905
C        13.56807121327250    0.47384784321522   12.63619651900910
N        14.44866103579347   -0.22950570872802   12.84566955574844
C         4.92943122906108    5.31502335436265   15.56750196020156
C         4.91097806661067    6.35544166298203   16.49446287103643
H         5.27184158664657    7.33056911342975   16.20234108336912
C         4.45091634032247    6.14515725053402   17.77825062483258
H         4.44200206130501    6.95033318767661   18.49800251766717
C         3.99306720625718    4.88075137781604   18.15145519525458
C         4.00654684453992    3.83378836998427   17.22884089876119
H         3.64883233706605    2.85811151653564   17.52301472918239
C         4.47558779508576    4.05420149555840   15.94997805658698
H         4.48369179407053    3.24861793636718   15.23067845800622
C         3.51547130781313    4.66078642354624   19.46383990356074
N         3.12656309774653    4.48335424705295   20.52745648812530

