39
CSD_code = NIKPOM | q = 0 | S = 0 | Stoichiometry = C10H19N2O5ReS2 | MND = 6
Re        4.01423304003888   11.05905820134480   18.67436891837504
S         5.02217407809809   13.00849515124805   17.91048200822639
S         5.79331979837459    9.70056498488137   18.10222855224879
O         2.86988563820027   10.73927429241204   17.50737667945556
O         4.66005056387090   11.62786729785625   20.44820047557909
O         4.84115147877364   13.15999819078639   22.05167448508806
O         4.76460311060730    5.90802469648167   20.87468466922249
O         2.71798090260402    6.70863917846102   20.50252438301436
H         2.44067354234169    5.82887256060552   20.80323312082173
N         2.43843648819896   12.69411249248114   19.61194794518796
H         1.87452205218376   13.10755154347254   18.87477017871253
H         1.82541266848046   12.35811330430918   20.34876855470235
N         3.46467499000583    9.14675541857234   19.98549763052555
H         3.22891372208991    9.43759532475324   20.93093846989991
H         2.63368268849745    8.73796317570194   19.55969049984529
C         4.19591958032578   14.29732919838764   18.97315110774240
C         3.43586364857004   13.62575549497968   20.13245306800230
H         3.00330056546182   14.39841057308118   20.78361427399585
C         4.41892580662765   12.75910623402992   20.99266899136390
C         4.54192207545828    8.15954442751413   20.00973031686096
H         5.32906813346161    8.50585832142465   20.69030939394212
C         5.18204078319904    8.01987652713713   18.60331952648574
C         4.05687730894587    6.80442574804969   20.51227019520696
C         4.16657033589710    7.56257294418696   17.56131571992102
H         3.40733460207292    8.33012392383320   17.40098881879372
H         3.69116795638606    6.62920204387821   17.85878746395005
H         4.67566411266752    7.40531196799472   16.61456688897538
C         3.24586518136049   15.08913263356119   18.07310153433766
H         2.61462171687277   14.42652596551926   17.48395459145550
H         3.83078394205310   15.68202951993657   17.37509419014778
H         2.62360764705850   15.76101151895046   18.66366724350199
C         5.29087878953970   15.20843147723794   19.52011569193881
H         5.94219514848931   14.66890346559291   20.20299182971342
H         4.84987479233031   16.04722019010712   20.05625021129659
H         5.89368086868667   15.59065409385081   18.70021070106069
C         6.40288770438477    7.11030245328269   18.63944906074003
H         7.12552711886919    7.46979067067215   19.36749110767990
H         6.87684170228561    7.10714458903388   17.66183059993210
H         6.12506571663434    6.09255020444232   18.90208090205365

