42
CSD_code = NIKPUS | q = 0 | S = 0 | Stoichiometry = C11H21N2O5ReS2 | MND = 6
Re        4.49260469838887    5.17869151527501   17.10871903349634
S         2.54490947852797    6.41275993353465   17.30254695991562
S         3.54909734480643    3.57804415257803   15.71033704013712
O         5.42608064445298    6.07921174390393   16.06590077927201
O         4.30507585820458    1.81618368773178   19.38032909713370
O         4.14061325464017    3.87092076769684   18.54275460406022
O         3.40212565261826    8.48947882439745   21.47115254649612
O         5.43997102242746    8.70145194738428   20.55696964310708
N         5.05251149886257    6.44143209624598   19.05673342848050
H         5.42200707194599    5.80993091755835   19.76419026654400
H         5.77763051826156    7.12804217618351   18.83919121225702
N         6.30910347930995    3.53317876106195   17.14697122850179
H         6.80333660130996    3.52673296446672   16.25918253041185
H         6.98365891806798    3.62969805685853   17.90025730744504
C         4.62475972740237    2.09814719748010   16.06445754299654
C         5.47559973953991    2.34679944302840   17.32456349940772
H         6.05749088554127    1.44406473039381   17.55814828327889
C         4.54758676864735    2.65887637989329   18.54834784927192
C         3.88324453083979    7.15118390875835   19.57447064250339
H         3.21688672278179    6.44294199669002   20.07822253135880
C         3.09943859776961    7.79938278749759   18.40677991276906
C         4.34159156009126    8.20592090736548   20.58014801817955
C         3.71524949300510    9.49095427926375   22.43458592156848
H         2.90353857491401    9.48082660834057   23.15664811738420
H         3.78570334983998   10.46772318599370   21.95246198390208
H         4.66744224886290    9.26660631235563   22.91834123733727
C         1.84099649671635    8.50086546763334   18.90197483741085
H         1.27313702365781    7.85530675942807   19.56697416061607
H         1.21374138234721    8.74964328596883   18.04999941076208
H         2.08990893965986    9.41842184111318   19.43036905994417
C         5.50658063326060    1.87314012362050   14.83510071556334
H         5.98929732784539    2.79651192613845   14.52039286000080
H         4.88438601458213    1.53737294829731   14.00985420066814
H         6.26101035329694    1.11244360460057   15.03395063690566
C         3.97304060958757    8.74069998178052   17.58258908643086
H         4.70603708540270    8.17642392609438   17.00267466805126
H         4.49006997349303    9.45569936951919   18.22037079243883
H         3.34800095240965    9.28500385690063   16.88012482124071
C         3.70126195523539    0.90302403478625   16.28128910049251
H         3.10326103504600    1.03060659256884   17.18004739302632
H         4.28516187094913   -0.01028827602230   16.38349100593838
H         3.02925010538051    0.80003927548096   15.43308603338994

