33
CSD_code = NIKPAZ | q = 0 | S = 0 | Stoichiometry = C14H12Cl2N2O2Os | MND = 6
Os        2.48779770409541   -1.87566193246252    3.28256490391622
Cl        1.08002936303890   -1.61408264248706    5.19792526396412
O         4.17087060658158   -4.06394499916575    4.52212183919001
N         3.54224069855797   -0.27895510891072    4.05454512567901
C         3.53473176983043   -3.23647227764067    4.05276613536799
C         4.61614462736454   -0.35378103997003    4.83426309854545
H         4.96308659451126   -1.34633636047581    5.08829591898317
C         5.28232730172775    0.75685034165901    5.31291828004846
H         6.14962207808023    0.63251246987940    5.94168826174230
C         4.82567507627098    2.02779959820032    4.97505241377599
C         3.70456347281386    2.09962390879173    4.16023280253626
H         3.32225422607767    3.06618561025721    3.87519168111197
C         3.08212592923374    0.93752545599767    3.71469647417135
C         5.50048639749776    3.25596182839328    5.48595285475791
H         5.16631595198712    3.45826595228861    6.50372072956147
H         5.26296105352662    4.12028218257186    4.87141625794956
H         6.57881250976479    3.11917684775749    5.51132181889905
Cl        3.89513788413174   -1.61458079741010    1.36754092499839
O         0.80529715199905   -4.06417990395253    2.04196067792380
N         1.43344824909181   -0.27894679397350    2.51045137703543
C         1.44128567161746   -3.23666625609765    2.51183857069380
C         0.35956327382894   -0.35377600603975    1.73071978464186
H         0.01263940171409   -1.34634539349529    1.47667699774372
C        -0.30655620996437    0.75683836042401    1.25195829390273
H        -1.17385454903354    0.63249196365566    0.62319046758154
C         0.15017120229612    2.02778761123809    1.58968936679021
C         1.27134444987309    2.09960426659772    2.40441986523731
H         1.65369815259785    3.06616911324940    2.68940657475746
C         1.89368947400141    0.93751900936053    2.85008967349400
C        -0.52463047433572    3.25596407641547    1.07880954107028
H        -0.19020265470545    3.45848027359672    0.06115936151902
H        -0.28732545332188    4.12020354896698    1.69356856013531
H        -1.60295093074894    3.11908709278762    1.05314610227855

