76
CSD_code = NIKTIM | q = 0 | S = 0 | Stoichiometry = C29H41Cl3HfN2 | MND = 5
Hf        4.75716936596963    5.45190638200532    1.75111552697969
Cl        6.08223337440339    5.45200015150563    3.65021241980167
Cl        3.15350872184098    3.87512913583044    2.40290295148747
N         5.87090540015747    6.89476032662003    0.71673544543332
C         7.87797000273104    7.87643706559527   -0.32918665980690
C         7.06135648733056    6.71151759315684    0.16931237399372
C         7.62469416601327    5.45195494054680   -0.03192735980915
C         5.32689002220114    8.21446108705633    0.77129296150999
C         5.77354385792461    9.15145468472314    1.71201774412269
C         5.23444679142275   10.43090771385624    1.67666949549015
C         4.28207072786708   10.78086066880885    0.74086256001161
C         3.80755315999516    9.83328887864039   -0.14635690323496
C         4.30318727861006    8.53878391847311   -0.13149376581315
C         6.74495290265711    8.77549052713977    2.80518684914800
C         5.99307157728538    8.75694393656665    4.14045011198156
C         7.93733345848733    9.73206383330732    2.88318789024470
C         3.75329237642901    7.48136262224113   -1.06312080528799
C         4.42521322095114    7.57799106914821   -2.43556626901358
C         2.23136971934573    7.55632796734604   -1.18505927124842
H         7.26031546656387    8.75732205442057   -0.48508508919598
H         8.37875435187634    7.61639656843676   -1.25896827618856
H         8.64331431533442    8.11606603296618    0.40777256716971
H         8.61145328021052    5.45192508167488   -0.47041700760809
H         5.56477493375577   11.16329622323550    2.39616666518907
H         3.88815646818252   11.78566123644807    0.71879205426651
H         3.03736240057887   10.10483213738425   -0.85006415298546
H         7.12068015842665    7.76253015320879    2.62041534362282
H         5.11653828606450    8.11528549772759    4.07002576898013
H         6.63838913587921    8.37204501707949    4.92587853806658
H         5.66363241100677    9.75717650247457    4.41155217592692
H         8.67181689119916    9.34538314688512    3.58572923290608
H         7.62574707071770   10.71428182517791    3.22906086897424
H         8.41409894644706    9.85122223574945    1.91260063755109
H         3.99294524110526    6.49232194797601   -0.62485079945028
H         1.91814466117212    8.44784669658948   -1.72123695070459
H         1.86008163513060    6.69065925735022   -1.72978783457543
H         1.78233703952475    7.56349559188294   -0.19465187517001
H         4.02237855166617    6.82618215938192   -3.11076634441337
H         5.49905356574026    7.42545519134861   -2.34905021866010
H         4.24990363904906    8.56042942368806   -2.86861541723837
N         5.87093886657437    4.00911714069824    0.71667191452292
C         7.87819284857382    3.02762818515812   -0.32911247611616
C         7.06143214403929    4.19236332588883    0.16940147874458
C         5.32696310978116    2.68941081275356    0.77119621177234
C         5.77351245491394    1.75245154696982    1.71201071676792
C         5.23436478581276    0.47302311916634    1.67667452163938
C         4.28197531598636    0.12312118449486    0.74085864908727
C         3.80751028561593    1.07070660863096   -0.14637636904997
C         4.30323792231289    2.36516427169608   -0.13156157790085
C         6.74491441070054    2.12842905849659    2.80518852613569
C         5.99311596404710    2.14691975058001    4.14050544514725
C         7.93733903110126    1.17191065839822    2.88304344596176
C         3.75332083924086    3.42267490096376   -1.06306922801948
C         4.42518309012074    3.32600561857901   -2.43553317645036
C         2.23138266270654    3.34782623920344   -1.18495256028128
H         7.26158132013213    2.14624392529992   -0.48280306253679
H         8.37686722482867    3.28660592213009   -1.25984515266349
H         8.64494391266072    2.78963856127959    0.40616634977939
H         5.56470058074271   -0.25939333724645    2.39614075893310
H         3.88805766934849   -0.88167508155839    0.71873825882600
H         3.03731495132420    0.79920760511579   -0.85009166972351
H         7.12063228648377    3.14138962450686    2.62041707492233
H         5.11659416615906    2.78859754600398    4.07014793204728
H         6.63846094695116    2.53175557098423    4.92594496786860
H         5.66366074189998    1.14667925387330    4.41155869360297
H         8.67183412238811    1.55857487044950    3.58558096583512
H         7.62583857956778    0.18963733529639    3.22884364837089
H         8.41404838260022    1.05293454085844    1.91240910428273
H         3.99308280060732    4.41169244069146   -0.62478752376492
H         1.91809510428162    2.45631283948803   -1.72110246853215
H         1.86011680113095    4.21350168143172   -1.72969009482577
H         1.78238147409492    3.34069403272214   -0.19453129358198
H         4.02235589967035    4.07783046538049   -3.11072220911166
H         5.49903330067560    3.47848170784877   -2.34903081013571
H         4.24981447925076    2.34356649729534   -2.86855433440168
Cl        3.15426046241818    7.02951509281822    2.40223016039039

