83
CSD_code = NIKZAL | q = 1 | S = 0 | Stoichiometry = C40H40P2Rh(1+) | MND = 8
Rh        4.16964523928441    0.66541242793246    9.38060676313257
H         3.73951599722213    2.12351566873876    9.26973831279694
P         3.75944322774475    1.00444692763543   11.57982349600574
P         6.21189081427618    1.51670624861697    9.90707991733668
C         4.44865327539099   -1.42890909989980    8.59989450935964
C         2.07266367952359    1.49881035707485   12.01262608904239
C         4.20744623129475   -0.26831569119940   12.80345777388680
C         7.52107145310816    0.38142607766461   10.45823603852530
C         7.06378401520555    2.57033802171952    8.69563293865958
C         3.13384473115154   -1.30979960059197    9.12815611742866
C         1.66354581389419    2.79952630703393   11.72785854375482
H         2.37942928781912    3.50454013684059   11.32628634630849
C         5.03944182365309   -1.31161347999379   12.41498149399527
H         5.36990746622896   -1.36960001360498   11.38569449503546
C         8.22524655586063   -0.32627892998755    9.48523209706158
H         8.03512719662632   -0.11889698710155    8.44006926705972
C         6.30707603702398    3.17645612647103    7.69785923316924
H         5.24141434082815    2.98482348716106    7.65465443585174
C         2.45634469995799   -0.24764983035113    8.42379055183492
C         0.35494937340282    3.17750432579937   11.96097603142080
H         0.04159107690202    4.18905145154884   11.75223439493640
C         5.44872647797751   -2.25684134629716   13.33830442138500
H         6.09515753919848   -3.06551787662855   13.03109376820498
C         9.17689450227248   -1.25768008688894    9.85597289460674
H         9.72602361744389   -1.79850852570585    9.09970676574158
C         6.91080552004953    4.01458594104638    6.77826645829349
H         6.32017319966884    4.48347933479512    6.00563643772322
C         3.33946899764003    0.22556477350281    7.39149168788888
C        -0.55595952123445    2.25717412117919   12.45763510351619
H        -1.57774332407756    2.55356312479088   12.63769438501762
C         5.02953815698494   -2.16084976608557   14.65490790965584
H         5.34290336362794   -2.89940514821665   15.37659013241218
C         9.42447431283009   -1.49582652977113   11.19939305078374
H        10.16609813354732   -2.22427950360040   11.48859844669477
C         8.27406461679674    4.25159842670678    6.85014247946400
H         8.74683995230503    4.90485159011016    6.13313961534034
C         4.57832527139283   -0.47199877438716    7.52469905620951
C        -0.15815007234004    0.95575305145438   12.71884112604426
H        -0.87007645482029    0.23815377760281   13.09818288052968
C         4.20712614171932   -1.11578932379914   15.04820870302034
H         3.88400348134362   -1.04072083281565   16.07536114124651
C         8.72419022001263   -0.79663074652332   12.16924034042566
H         8.92072688136112   -0.97805875057328   13.21499251371110
C         9.03244496511906    3.64839309301949    7.84128200653443
H        10.09459110049809    3.83310862528878    7.89628000610994
C         5.40489806106139   -2.55605979004808    8.85417899055735
H         6.42468308233496   -2.20312821826743    9.00917661918773
H         5.40690389680667   -3.22109581130555    7.98900873938204
H         5.10364576126098   -3.13640574275644    9.72276698939030
C         1.15183810599791    0.57158668487431   12.49317528246848
H         1.46597958588446   -0.44290971122916   12.70000889913550
C         3.79713136414983   -0.16691614687074   14.13008995552120
H         3.15506078208516    0.64512314384811   14.43943404472965
C         7.77062286817974    0.13744920536525   11.80476396116344
H         7.22591792571999    0.68219594777340   12.56374288349643
C         8.43502902018380    2.80771369403719    8.76290448722300
H         9.03282433080198    2.32986883050483    9.52688811813351
C         2.47251358873564   -2.24803367752014   10.08685292658013
H         1.62546294373369   -1.77305298626793   10.57635831700319
H         3.15867469759635   -2.60883547885250   10.85063034564419
H         2.10000897350722   -3.10971654044663    9.52965098591144
C         0.99155262927234    0.04978643788063    8.52087159969216
H         0.76052980405050    1.02166897314255    8.09213280205292
H         0.64968290480025    0.04407415905913    9.55467210757543
H         0.43230033509726   -0.70929787421426    7.97135558191313
C         2.96325514238322    1.09816127287042    6.23536511948988
H         2.23156954162038    1.85101954532855    6.51832470519925
H         2.52207113434006    0.47310931700186    5.45664481334735
H         3.83436378167144    1.59546397189446    5.81520580881917
C         5.68924946246436   -0.43798127398628    6.52148350895467
H         6.54467248679113   -1.01308876138575    6.86563399295096
H         6.01309006479632    0.57989513731119    6.30702277240926
H         5.33490332827785   -0.88004618909872    5.58868664281922
C         4.82566991324808    2.37889267607826   12.11803549223588
C         5.97501363439049    2.59990422852914   11.35409203650828
C         6.86622647208586    3.60003410299048   11.71749981782540
H         7.74948535207491    3.78031362267948   11.12207831786274
C         6.61093521610646    4.37295837467074   12.83856329655043
H         7.30036558391757    5.15478601972177   13.11772326536652
C         5.47364822526270    4.14973820962328   13.59900942607019
H         5.27868155671349    4.75839192905935   14.46855191083197
C         4.58134237584678    3.15108048781154   13.24538391053515
H         3.68961665123257    2.98563965052227   13.83288134847136

