67
CSD_code = NILBIT | q = 0 | S = 0 | Stoichiometry = C34H29CuN2S | MND = 3
Cu        7.59471496764726    5.56476713474016    1.37070374325168
S         8.52139067145996    3.98833296997927    2.54648864766686
N         6.71883757535484    7.23093077183826    1.00715322699555
N         8.11760879091075    5.61462204042501   -0.59915385227761
C        10.07902576965147    3.99056164776814    1.73122269346950
C        10.76566683322422    5.17298972234723    1.38791757313797
C        11.97547840962130    5.08319974036045    0.70261290352108
H        12.51374745505357    5.99288711806105    0.47523602453600
C        12.51310193716661    3.86551413291593    0.33887681222485
H        13.45490151133062    3.81990091947334   -0.18858678522008
C        11.83481052905235    2.70470800916648    0.66575296656396
H        12.24232263302831    1.74108319946171    0.39266468013738
C        10.63899684150882    2.75213951443890    1.36685324902842
C         6.05808201621260    8.02558354873388    1.82746490251222
H         5.69486970108456    7.56682004973266    2.73652319609831
C         5.81578521733932    9.37878064690410    1.57904407504322
C         6.26756762775172    9.92967833911970    0.38577662626915
C         6.97931042274400    9.09182199201567   -0.50823833025013
C         7.54225414620445    9.54648886673448   -1.73378506596404
H         7.38930489626004   10.57281299204198   -2.02779357132370
C         8.29816417600559    8.73782454590450   -2.52145917273073
H         8.73666095821378    9.13871874821956   -3.42179518577147
C         8.55477400695524    7.38488380520709   -2.17064937796939
C         9.41988090544554    6.52524509027363   -2.89641910650029
C         9.63474700391722    5.24300793382857   -2.41180771861894
C         8.91995099262998    4.83045192768185   -1.27884915483654
H         9.01395360108215    3.81661686474185   -0.91349381159394
C         7.95891314210059    6.88911180209054   -0.99397635513053
C         7.18741402863735    7.74668038422970   -0.14730858772998
C         5.07706033353566   10.17687490858782    2.60995065452900
H         4.83434933248060    9.55144395669214    3.46471635063415
H         4.14848149922859   10.57461060936947    2.20227331032215
H         5.68331023661145   11.01202061551922    2.95771320185220
C         6.03937377013596   11.36697680428572    0.03481531595954
H         5.54152517737733   11.44636213975991   -0.93077276889990
H         6.99257121329225   11.89114523455065   -0.03358670964733
H         5.42740919248648   11.86691794584581    0.77705091674686
C        10.08877295633227    7.02597903088425   -4.13899669261978
H         9.34786460822445    7.41915936958385   -4.83357330340366
H        10.64114920965802    6.23744239011783   -4.63780048223173
H        10.78224854379663    7.83065423727870   -3.89458617657505
C        10.58458740771469    4.27601456886286   -3.04819214522177
H        10.25049199885246    3.99910354302747   -4.04788552576799
H        10.65437534069327    3.37472265337561   -2.44515194966730
H        11.58018440810626    4.70954997804797   -3.12584141999649
C        10.25785636297546    6.52113817755557    1.69203331050767
C        10.36881016621244    7.53338511455391    0.73703081277317
H        10.80363731140398    7.30994818417278   -0.22777687593545
C         9.91638656757500    8.81316966110606    0.99682425716063
H        10.00898101226294    9.57800073614992    0.23746753690625
C         9.34357830859384    9.11479086812542    2.22059928566887
H         8.98683626643485   10.11512753779530    2.42165921719709
C         9.24196159559492    8.12801706564629    3.18599146798081
H         8.81188899874137    8.35804160786935    4.15008426772089
C         9.68903798045342    6.84420120021223    2.92661664970184
H         9.63636017238310    6.09139672676630    3.69794069513709
C         9.96581215301390    1.47661123002583    1.67407412289182
C         9.64497225554688    1.12408025041524    2.98015457443385
H         9.87228451704224    1.80855080213774    3.78175838398219
C         9.03998637333432   -0.08956888384683    3.24688493287656
H         8.79484522349989   -0.35375729718201    4.26554437424331
C         8.74565142140063   -0.96627825259396    2.21593636067083
H         8.26882086322540   -1.91311238225017    2.42628503942133
C         9.06380507140053   -0.62457470483848    0.91298110892583
H         8.83533699412660   -1.30334367861769    0.10283657384121
C         9.67374117264049    0.58716165719594    0.64498915279363
H         9.91591721603865    0.85447193533298   -0.37552306949143

