109
CSD_code = NILFOF | q = 0 | S = 0 | Stoichiometry = C52H40N12O4Zr | MND = 8
C         5.11541224775840   21.19137277713718    2.90614788627261
H         5.01214830570057   20.12867084973317    3.06981184604590
C         6.32458070537403   21.79962186868642    2.68371973489821
H         7.22481557516761   21.20331834330231    2.66352060035304
C         6.43764762090690   23.18839534819732    2.48385324337626
H         7.41996491943524   23.60665636553859    2.32057929844906
C         5.34382418810970   24.01418290580185    2.48691816108943
H         5.42117595058844   25.07761932978203    2.33034202089814
C         4.09691102800037   23.41772340582315    2.69780231860450
C         3.98438533274074   22.01422160638069    2.91573890013992
C         0.69698967134942   23.05351576488129    2.98747313118811
C         0.16331780890151   24.34010148172469    2.89440790075093
H         0.85390964319827   25.16850750690680    2.86693005240142
C        -1.19814376686608   24.54381670302404    2.84142419821664
C        -2.03214302216293   23.42039341966747    2.84501616338807
H        -3.10145192889137   23.56053717878513    2.77677616755666
C        -1.52376992617052   22.15065540113088    2.94593777827104
H        -2.17553081048474   21.28962771432894    2.96158499413306
C        -0.13585671292812   21.90589601056485    3.07100357489068
C        -1.78418563947647   25.92094362612725    2.77612325703473
H        -1.00156189077311   26.67394978927821    2.79071954870629
H        -2.44618789246681   26.08791285265893    3.62477686090322
H        -2.37096848529901   26.04410317297639    1.86664223427747
C         0.15742411663141   18.56120922264030    1.07454704233739
H         0.35523425695882   19.62007200743020    1.15085308579122
C        -0.10688468970400   17.93511813269473   -0.11692566617377
H        -0.12611760303568   18.51319173100043   -1.02899405805748
C        -0.35145326615418   16.55127803877673   -0.19684206361278
H        -0.54660158088598   16.11794077633489   -1.16673526607079
C        -0.35268111269221   15.74911676351492    0.91433624609500
H        -0.54350642804856   14.68969434467039    0.86330316037849
C        -0.09943891846433   16.36485592323002    2.14384777793455
C         0.16397339461837   17.76287810914518    2.22310040795160
C         0.26474303595175   16.78569413939939    5.52951443123725
C         0.14184524095598   15.51271899699360    6.08922767336343
H         0.07527343567286   14.67277960008843    5.41543586179656
C         0.10926470324915   15.33617288472836    7.45515628411099
C         0.16514656097485   16.47404288174599    8.26741346638642
H         0.11411242210759   16.35571821889290    9.34031247128014
C         0.29618486371412   17.73034122070207    7.73312389517067
H         0.35248698184856   18.60234202171139    8.36778190704961
C         0.40079132008940   17.94498395076650    6.33865779049879
C         0.01199003440746   13.97300211409845    8.06875468229333
H        -0.01066941301168   13.20528495013445    7.30075382617895
H        -0.89029542636169   13.88945017144684    8.67336831836082
H         0.86673837941482   13.79217681406954    8.71916472712748
C         3.28583697391262   18.38714735380917    7.66509826575896
H         3.14575927605335   19.45683362619316    7.61687308372851
C         3.51590295637229   17.71642683537898    8.83926395870862
H         3.56660064432359   18.26832192962443    9.76622374571579
C         3.68504815255515   16.31972488484093    8.88237319803964
H         3.85648689692187   15.85101344406689    9.84022720271236
C         3.64265318396836   15.54825455905220    7.75047331533570
H         3.77558236795905   14.47904536164576    7.77329339319528
C         3.42332342349335   16.20907978243228    6.53796456346753
C         3.23613938621210   17.62092529151382    6.49590198214098
C         3.08519133374595   16.73820886766207    3.16486267384334
C         3.14059025623033   15.47582569488317    2.57142191339951
H         3.16137417021130   14.61588336468116    3.22255974689539
C         3.16558988456314   15.33427073876586    1.20126376039785
C         3.17189301426710   16.49467915809883    0.41955279852240
H         3.21826779491495   16.40237352905667   -0.65610517055164
C         3.10758121883776   17.74150098168934    0.98711301191503
H         3.09917414041354   18.63193830681371    0.37605255367327
C         3.01268443930266   17.92410579578917    2.38679910802606
C         3.19013554106482   13.98473333791077    0.55139858254320
H         2.32457778484768   13.86566173466904   -0.09899681858473
H         3.17601381351319   13.19665227053176    1.29869691025828
H         4.08446017183881   13.87098558380457   -0.06003670763645
C        -1.51720454378995   21.34582776911057    5.90573786967516
H        -1.47416875473128   20.28140539556956    5.72713471689622
C        -2.69019791650443   22.01876054095062    6.13556366811884
H        -3.62295175730271   21.47444551177081    6.14666309928021
C        -2.72443524377228   23.40879446368476    6.35485363673821
H        -3.68165637339304   23.87993593319684    6.52309067926286
C        -1.58541154362528   24.17097420060533    6.36454631770272
H        -1.60237208411174   25.23478635103190    6.53602805757231
C        -0.37411764802385   23.50756533408311    6.14626957401791
C        -0.34126630884312   22.10315418608929    5.90837208596984
C         2.99994098636296   22.95478246052467    5.85231911237502
C         3.60602513430576   24.20718707392373    5.96584830895866
H         2.96381985849929   25.07312272364672    6.00685273522878
C         4.97691607571594   24.33200834377801    6.02120078148405
C         5.74543525974991   23.16303136807600    5.99954233269877
H         6.82094345372080   23.24083978614596    6.06980481973570
C         5.16554654769005   21.92612577506206    5.87809294783934
H         5.76722777054313   21.02975049605493    5.84816061693495
C         3.76608419516186   21.76312851977141    5.74881575537410
C         5.64060714961819   25.67226558006002    6.10710143835103
H         4.90217710224368   26.46879585957236    6.10594874753428
H         6.30996114021212   25.81459022283035    5.25970554736660
H         6.23459173412649   25.74734411495486    7.01713364078398
N         2.85841944447784   23.93410374059272    2.74140218954797
N         2.08154308304309   22.91201918952454    2.97329499700476
N         2.67593136134029   21.74118220716563    3.10083024749160
N        -0.04871683255133   15.87261592255485    3.39166327801683
N         0.22920797258108   16.90221011278538    4.14294269119454
N         0.38175362948317   18.05686690515071    3.52230716356953
N         3.34662191369774   15.75344234041070    5.27764666102120
N         3.12543839099246   16.81604858146599    4.55402663508491
N         3.03525664978756   17.96054450268687    5.20510635876253
N         0.89176935148720   23.95326411806866    6.11051903844843
N         1.60956080845206   22.89205726642384    5.86417587191105
N         0.94974965628257   21.75879221916999    5.71993897447133
O         0.31192609451431   20.69950038161435    3.24325711207417
O         0.60122831651678   19.13625748433746    5.86333245298686
O         2.87582617126491   19.11130052753739    2.89370641089521
O         3.25024663529622   20.58765640219357    5.55457637221649
Zr        1.76013306401779   19.88171721814633    4.38850611060801

