38
CSD_code = NILFOD | q = 1 | S = 0 | Stoichiometry = C14H16AuClN5S(1+) | MND = 4
Au        0.46792352043946    0.65071480953575    3.40355178175235
Cl        1.87071442679789    2.45157947030227    3.77698866647779
C        -0.45491324507234    1.17746373986534    5.07862637098514
C         0.02046890098425    0.60116438127746    6.24428795502152
H         0.84225140626131   -0.09716254495316    6.20909021123065
C        -0.54511963760355    0.91323707616549    7.46996774758552
H        -0.15866229991954    0.45646544143679    8.36696081327573
C        -1.60692265223940    1.79807211292046    7.53267623786422
H        -2.06317033906507    2.03589008127844    8.48054040247191
C        -2.08729539907711    2.36710372556145    6.37082417836578
H        -2.94145459896903    3.03062908000492    6.42111005420534
C        -1.51218332825116    2.07325914795561    5.13288682195654
C        -2.09091817316123    2.74154547005297    3.91155656401963
H        -1.58464331970569    2.40699342117670    3.00431658737598
H        -3.15140440697014    2.48731084188727    3.83235138769102
N        -1.96616209264632    4.22540514500327    4.01079094375650
H        -2.14785387028659    4.45856237044955    4.99575263144744
C        -0.59949690137883    4.67835615553094    3.69741895039848
H         0.13995050226308    4.08794980846038    4.24047906203405
H        -0.48164785973957    5.72844996771324    3.95520915304893
H        -0.40675561136287    4.55254465481649    2.63393822993478
C        -2.95525855660791    4.92015884852994    3.17137566244624
H        -3.96765858895863    4.65966268279620    3.47521930111791
H        -2.81552561761358    4.63360198710431    2.13034999643698
H        -2.82984413338055    5.99814020146833    3.25711887903410
S        -1.26425133077465   -0.95289649678900    3.03922352264309
N        -1.01985376652529   -2.67849874500308    0.97070038897692
C        -0.34335842473738   -3.14738512570749   -0.07058583080102
H        -0.80456211897609   -3.97624869981102   -0.58770315156030
N         0.81797592284137   -2.73795153839590   -0.55612804631879
C         1.33337874401305   -1.71643749536994    0.11526789744108
C         0.70218750872975   -1.13889233073883    1.22062884831009
C        -0.51452430929919   -1.66342080500651    1.65231702121162
N         1.45896365249047   -0.10863249443061    1.70225636485808
C         2.51947472362838   -0.05582426682496    0.92789206587753
H         3.31456806364033    0.65461551963552    1.04872226441123
N         2.49200421411808   -0.99700846789293   -0.03955393667829
H         3.19527899613004   -1.15441713006628   -0.74622599825234

