54
CSD_code = NILFIX | q = 0 | S = 0 | Stoichiometry = C15H22AuN13S3 | MND = 4
Au        2.98554263201187    1.32246250909752    4.57191458169940
C         2.38045927921145    1.20615260836946    2.64708519132768
C         1.07789567751329    0.77700674290034    2.44221494733911
H         0.41767487175405    0.62784493391355    3.28476113508550
C         0.60042519494353    0.52151159904434    1.16706861437289
H        -0.41172666496023    0.17018389814697    1.03845474588800
C         1.43500147917908    0.68891887882976    0.07868207824816
H         1.08672571850959    0.46025906796268   -0.91628397563897
C         2.72752426109969    1.13205157633173    0.27539830592397
H         3.39018870730472    1.23560771080516   -0.57115555861347
C         3.21546038116938    1.40525861672986    1.55212024522928
C         4.64204512658206    1.86492072667998    1.69279170385865
H         5.23303954179493    1.47649341030113    0.85927675835322
H         5.06665055548891    1.48746090838649    2.62432116807854
N         4.74927711803247    3.34252527461142    1.71684582403489
H         4.11464036082112    3.69538643661047    2.52317360110689
C         4.24118255735284    3.96532680935289    0.49173654694450
H         3.21823119546519    3.64382402301407    0.30847056031151
H         4.86436736683544    3.68654374677661   -0.35799436160309
H         4.24980372198277    5.04667863438168    0.61275337172519
C         6.12334443461434    3.77699157312464    1.98310840409286
H         6.42952592295566    3.44650133310351    2.97554286236700
H         6.16421558015417    4.86362321893517    1.96625449450514
H         6.79709855185151    3.37446861880572    1.22738643549163
S         3.64394608705159    1.33250347747559    6.92053886130199
C         4.90616798770763    2.29455505984757    6.34507041816738
N         5.01353835355374    2.69284866279516    5.08183183836653
N         6.12995499497101    3.41790366329209    5.01936017673735
N         6.69626688535205    3.48893780989619    6.14574346075159
N         5.96140760068239    2.79718426168915    7.02556639012984
C         6.30108720754408    2.62742748817762    8.40243175810350
H         7.01482191808823    3.40219980537067    8.67452001807496
H         6.74617276496215    1.64289449762961    8.56085786586278
H         5.39665089264951    2.70667432080986    9.00585791497584
S         4.42470055711678   -0.51331898145446    4.17838870867967
C         3.61477774943496   -1.36328102659123    2.92080808527084
N         3.92707299561877   -1.44520245124858    1.64417064745964
N         3.00425615932455   -2.21420015000962    1.09160261310355
N         2.14950175923799   -2.61041211370395    1.94306824172547
N         2.49425764936298   -2.10589440016172    3.12624368508555
C         1.77243195719867   -2.32864051713459    4.33798441492725
H         0.89222996574865   -2.92143138179129    4.10000696247346
H         1.47643871477973   -1.37168240848027    4.77662182542371
H         2.40140614035971   -2.85847978915058    5.05565182552943
S         1.35264969000867    2.99972498630705    4.99061216898792
C         2.08664799007761    4.36064513451812    4.29490755228217
N         3.07244612707560    4.44284419233371    3.41304951452620
N         3.24716762859632    5.74116938696251    3.15956724406964
N         2.44072393680783    6.44959834593862    3.82140156479634
N         1.68479781264392    5.63342253155398    4.55697453106054
C         0.64947107621210    6.07420815080006    5.43680772626187
H         0.68472297185439    7.16040378107299    5.47609334057723
H         0.80693128932454    5.65011663742434    6.42938479867870
H        -0.32144043620969    5.74167817064563    5.06594816504082

