209
CSD_code = NILGIZ | q = 0 | S = 0 | Stoichiometry = C98H88N8O14Zn | MND = 6
C        -2.55049033777303    1.60443853655445    0.49275991344505
C        -3.00555657741386    2.89078931925723    0.95587718671879
H        -4.02193361513495    3.23342462640002    0.94186696397685
C        -1.90932109177439    3.55628777902223    1.38711709436521
H        -1.85002315228984    4.54523451369452    1.79964842768219
C        -0.78605451494498    2.68183458347137    1.17004032099738
C         0.53643494441969    3.04798228653080    1.41324668698596
C         1.65812484258769    2.27206096902435    1.12098275697013
C         3.01330243780376    2.68535888242114    1.37606627982148
H         3.30335031246176    3.63517998233554    1.78262443251621
C         3.80704232026943    1.65164425721320    1.01208276249848
H         4.87762751419557    1.58963371958015    1.04870030880681
C         2.93560883397050    0.61417090750205    0.52615324481557
C        -3.37966729254281    0.62862271075388   -0.06599544737930
C        -4.79182728602690    0.99001534534736   -0.34368109582417
C        -5.15497856789126    1.15226513286933   -1.67665878162758
H        -4.40962561532305    0.98105350261201   -2.44069027195748
C        -6.43373762527101    1.53805821755519   -2.03123982457266
H        -6.69136037174097    1.66398572140717   -3.07192388158657
C        -7.37340734639043    1.76518773747687   -1.04082761067317
H        -8.37526854083490    2.07081111433676   -1.30156942914899
C        -7.03987026669758    1.59722940691907    0.28951740234746
H        -7.77400622762300    1.77053786308890    1.05757733236626
C        -5.75352347258230    1.20667882429974    0.65372895449539
C         0.78342311256410    4.38846588722962    2.00661051321981
C         0.71693180338977    4.57853198182373    3.37803934383321
H         0.45436481094825    3.74353748397331    4.01203710837867
C         0.98953651637958    5.81780952790013    3.93205609939455
H         0.93706566779450    5.95272323404275    5.00179546707300
C         1.33396853883872    6.87648213077052    3.10971060221130
H         1.55362155045697    7.84352751468013    3.53609694602464
C         1.39156846003337    6.71017899492193    1.73751872486799
H         1.65713037336105    7.53370378110764    1.09619246593253
C         1.11227433156515    5.46919125453558    1.17752309204878
C         1.71618528072105    5.98811889900841   -1.17068085399649
C         1.47639789990731    5.46716836051029   -2.54897628754557
C         0.26543780853288    4.92194755730845   -2.96384243632932
H        -0.57827464231908    4.87315108319062   -2.29041587616316
C         0.13427662187926    4.47842018100145   -4.26799965283640
H        -0.81735964720444    4.09929507024797   -4.61215875643089
C         1.21713408104058    4.49745768410010   -5.13331358912384
H         1.10763303602199    4.11053604546914   -6.13609281582519
C         2.43836138444979    5.01564800692892   -4.72141600403202
C         2.53216692518186    5.54915897797701   -3.44501602720542
H         3.44498914113365    6.02306688749593   -3.12030111832844
C         3.67825455942735    4.91533387016158   -5.56155573663919
H         4.32961078461398    5.77197511890339   -5.38098765551975
H         3.44725720867671    4.87966233625478   -6.62668315878022
C         4.44803528485263    3.62669685988111   -5.17703758098076
C         4.67010607769510    3.64180516978327   -3.66318736757776
C         5.94834731897674    4.65829821793989   -1.94497147738220
H         5.27240799678860    4.03718151432681   -1.34923872709845
H         6.96973251707269    4.27505350158458   -1.85132786134710
C         5.88343310601062    6.11528370679414   -1.51446470895659
H         6.34489647279956    6.21674677249702   -0.53622933989641
H         4.85669874779844    6.46670974784607   -1.44317218300438
H         6.42374455158569    6.73741165421163   -2.22365384733932
C         5.78732827611839    3.57836792378908   -5.91043967553372
C         7.92903449227742    2.60516681716408   -5.87194396509636
H         8.44825847660245    3.56387117004611   -5.97921344952025
H         7.74961708039347    2.19750306603282   -6.87274806532259
C         8.71640922068564    1.63599753633445   -5.01200690605428
H         9.68106800883226    1.44284397545685   -5.47164114651095
H         8.17667871592485    0.69829203834112   -4.90971034595177
H         8.87257544006103    2.05506292387154   -4.02181234622768
C         3.64357453241693    2.37540077767266   -5.60500232874536
H         2.80150683555834    2.28247299285276   -4.91866853000053
H         3.26574368818358    2.54808155592408   -6.61434636094560
C         4.45908018112378    1.11177142354819   -5.59220799184571
C         4.93573434616422    0.57224351325286   -6.78076356538261
H         4.69646022596320    1.05175718327945   -7.71957678043483
C         5.73018376664397   -0.56247803379701   -6.77013751457609
H         6.09539915458310   -0.97288384517451   -7.69973113741335
C         6.07757326581396   -1.15076982242019   -5.57026148401020
H         6.72967659569446   -2.01044043800173   -5.53705449532413
C         5.60206587301219   -0.62740191628711   -4.36903082214226
C         4.77746176170755    0.49010912243687   -4.39178170548257
H         4.40922968757153    0.92787070133068   -3.47819849535102
C         6.13967061876104   -1.21468355264560   -3.10571850662423
C         1.32192002400112    1.13447067007561   -2.74505914665334
H         2.12244966969430    1.01242533859611   -2.02068316368939
H         1.46469655924066    2.09008013689284   -3.26924392569007
C         1.19260225941703   -0.02704817456333   -3.74279320874403
H         1.70904012557981    0.18443233652839   -4.67710109733947
H         1.60929077786347   -0.93992771298179   -3.32103153128978
C        -0.32908053944275   -0.16160074782745   -3.92836565322196
H        -0.63618853426014   -0.03939136436580   -4.96522953357668
H        -0.67683463350961   -1.12956112268716   -3.57154009974060
C        -0.88923100666771    0.95587991036303   -3.03817063994219
H        -1.02609869576424    1.87823301387579   -3.62124409447057
H        -1.82159559371558    0.69684475674879   -2.54280528120684
N        -1.20674688229434    1.50568117342397    0.64531619821660
N         1.64481293406880    1.02525815924896    0.59164866587777
N         1.10225807257367    5.25247827569073   -0.20392434516323
H         0.69715822651770    4.36690655385962   -0.48318262542957
N        -5.40020688945186    0.96944392315396    1.98577346945248
H        -4.48442406382435    0.55773687196972    2.10723406771106
O         2.42657231872114    6.95198001446083   -0.96143549543275
O         7.18587389286026   -1.83551800359760   -3.11202437337774
O         4.05231809965356    2.96582110342656   -2.87890015277881
O         5.59731634247643    4.52435604218839   -3.33023543514287
O         5.99720937483268    4.09596022240776   -6.97403520225645
O         6.66358682534232    2.83750017554725   -5.24401177499160
O         0.09309722278710    1.17847151196827   -2.04729228514551
Zn       -0.00002674185973    0.00005391461169   -0.00003867995887
C         2.55043211871750   -1.60438437256341   -0.49282123529181
C         3.00551279900879   -2.89068230300336   -0.95604886151717
H         4.02190048051711   -3.23331330722816   -0.94207887298219
C         1.90929431325125   -3.55615491806220   -1.38734419551704
H         1.85001306159569   -4.54507980378097   -1.79996712330913
C         0.78602612661842   -2.68173971102825   -1.17019420117561
C        -0.53646549039762   -3.04794990216243   -1.41332831674240
C        -1.65816695253661   -2.27208343242409   -1.12097868134279
C        -3.01336315247859   -2.68540798549933   -1.37600025735764
H        -3.30341117881931   -3.63521856150674   -1.78255271913512
C        -3.80711093606073   -1.65171670264898   -1.01194684803383
H        -4.87769318048943   -1.58972321632906   -1.04848561848638
C        -2.93566169920646   -0.61420256902834   -0.52610857917981
C         3.37959098601268   -0.62862640980929    0.06601443279684
C         4.79174759284844   -0.99002466087262    0.34365418139220
C         5.15497147879627   -1.15222368213166    1.67660905204297
H         4.40965726051525   -0.98098850261865    2.44067340151827
C         6.43376151229193   -1.53800416369669    2.03114029132698
H         6.69143726333964   -1.66391320249714    3.07182087157992
C         7.37339488741101   -1.76517025903123    1.04070255070266
H         8.37527524831627   -2.07079287898802    1.30141326154700
C         7.03978943728264   -1.59725101003800   -0.28963050277751
H         7.77389710347039   -1.77057620515775   -1.05772025960863
C         5.75340687493210   -1.20671504445632   -0.65378929329191
C        -0.78343742854307   -4.38846080478707   -2.00662512439654
C        -0.71702554115673   -4.57862647053713   -3.37804333170315
H        -0.45440025769894   -3.74370587927642   -4.01211265228137
C        -0.98971038532874   -5.81792403413140   -3.93197617980652
H        -0.93704598301259   -5.95297002958820   -5.00168944723936
C        -1.33412198761726   -6.87654657792955   -3.10955805390477
H        -1.55362680637558   -7.84366675240662   -3.53585127445061
C        -1.39158474336224   -6.71016403785307   -1.73736827481930
H        -1.65720336347756   -7.53361917721047   -1.09597614568585
C        -1.11222284972758   -5.46914568203469   -1.17746502024060
C        -1.71646285685543   -5.98790281859884    1.17067356244678
C        -1.47630998635442   -5.46730077756441    2.54903474150802
C        -0.26532020804262   -4.92205282998057    2.96381050018342
H         0.57833046954655   -4.87322275637398    2.29031356908858
C        -0.13417427509770   -4.47823438154628    4.26786918705588
H         0.81748621514620   -4.09913016299074    4.61199164016825
C        -1.21705523501743   -4.49704776461164    5.13316371146560
H        -1.10747231206831   -4.11017979264944    6.13595724357276
C        -2.43825395283178   -5.01539447532955    4.72138872696075
C        -2.53203237626357   -5.54921876226613    3.44511600885574
H        -3.44490856756513   -6.02304751257480    3.12042093601910
C        -3.67812703183174   -4.91521586359623    5.56157783120561
H        -4.32941868953272   -5.77190216200190    5.38095395358065
H        -3.44722846189296   -4.87949594441285    6.62671895950339
C        -4.44798144614721   -3.62666368284460    5.17708231243641
C        -4.66959220990355   -3.64231035262274    3.66317353884880
C        -5.94824465634131   -4.65843799714295    1.94503556895510
H        -5.27226482043600   -4.03743964912179    1.34922712850281
H        -6.96962995926042   -4.27515261752283    1.85145080384858
C        -5.88341143805582   -6.11546543171467    1.51467698174052
H        -6.34504008569473   -6.21700562655005    0.53653751135830
H        -4.85668208674306   -6.46689503001704    1.44323937152180
H        -6.42359237970028   -6.73756835686482    2.22398741302626
C        -5.78752072383650   -3.57911618526806    5.91011668204244
C        -7.92891154511996   -2.60518669886740    5.87207784567571
H        -8.44817959758963   -3.56384538525179    5.97945095910250
H        -7.74937375273358   -2.19747339412146    6.87284300332243
C        -8.71640261176885   -1.63618242974189    5.01206053334251
H        -9.68104065682997   -1.44301299189124    5.47172750907459
H        -8.17670885439457   -0.69847456191359    4.90960649650047
H        -8.87264188368282   -2.05537006259743    4.02192767983344
C        -3.64354984718587   -2.37527135112371    5.60496773730109
H        -2.80137511676615   -2.28223361112851    4.91876110386625
H        -3.26579795037352   -2.54791877637860    6.61433879634312
C        -4.45905833902270   -1.11165450226656    5.59218990804400
C        -4.93579044457948   -0.57218841791233    6.78073764333688
H        -4.69645393033945   -1.05166092760087    7.71955599070216
C        -5.73034307982358    0.56245872886651    6.77010190653182
H        -6.09554846005465    0.97286931735934    7.69969486640920
C        -6.07775717848358    1.15072885957076    5.57022478301813
H        -6.72991123845767    2.01035697035302    5.53701041407402
C        -5.60220359410007    0.62739449619757    4.36900129615323
C        -4.77749597636989   -0.49003961867990    4.39176118072153
H        -4.40924129347302   -0.92779304283763    3.47818474396736
C        -6.13982755395799    1.21461765796221    3.10567233884451
C        -1.32188042348282   -1.13439226156526    2.74511005646807
H        -2.12243084398165   -1.01239534683584    2.02073973658234
H        -1.46463970561694   -2.08997213599566    3.26934678524648
C        -1.19254793529876    0.02718021541328    3.74278112428436
H        -1.70900029703260   -0.18424817146043    4.67709108308628
H        -1.60922875155339    0.94004692693113    3.32096924740011
C         0.32914152973008    0.16171025653651    3.92834664593868
H         0.63624250285856    0.03949650458198    4.96521089518356
H         0.67691120478674    1.12966652208030    3.57152623697597
C         0.88928434004743   -0.95577119909379    3.03815184876173
H         1.02619520485894   -1.87810446660771    3.62124163411819
H         1.82161618348171   -0.69671928167000    2.54274662613283
N         1.20670722343155   -1.50561481921480   -0.64538127203137
N        -1.64485538962069   -1.02527631602584   -0.59167948403528
N        -1.10240599269957   -5.25230384385961    0.20395483277492
H        -0.69734688388694   -4.36672441277861    0.48323446349819
N         5.40006884503059   -0.96946901304979   -1.98581226808272
H         4.48430896573135   -0.55773050834393   -2.10726009005129
O        -2.42664887790861   -6.95191166995538    0.96139957994185
O        -7.18610120022871    1.83531996517729    3.11196690704966
O        -4.05230020919129   -2.96583622038320    2.87892699460712
O        -5.59697855260168   -4.52468125609098    3.33026373880004
O        -5.99703389745477   -4.09582446707766    6.97421151008923
O        -6.66363626076080   -2.83787267158962    5.24392591436112
O        -0.09307378071515   -1.17840644872426    2.04731559601882

