50
CSD_code = NILHUM | q = 0 | S = 0 | Stoichiometry = C10H30Cl3N4Si2Ta | MND = 7
C         4.37919798545803   -1.28499077379915   11.14356595940421
H         4.90739322956455   -2.19851696214635   10.88723172346412
H         3.74648077683227   -1.50991211391433   11.99528430418301
H         5.11702832865018   -0.55684762955540   11.46486301461705
C         2.05015672544611    0.67467448529952   10.27046564162392
H         2.46675982042907    1.33444268598159   11.02164885567695
H         1.16105207745202    0.21285202855364   10.68581701330155
H         1.75279123190325    1.28200653300860    9.42113602811715
C         2.34644301995967   -2.11395856731005    8.95004962306901
H         1.80542746783219   -1.83065091698242    8.05257432585382
H         1.61576865264280   -2.46256416509759    9.67337837314813
H         2.98202015920577   -2.96110130505532    8.70886824641248
C         6.33786861635819   -0.92315618893000    8.14540820854241
H         6.77117466888430   -0.24740122282517    8.88195774862668
H         7.06259729076534   -1.08645201650733    7.34766322570822
H         6.09557507964813   -1.87571165059368    8.62594596162329
C         4.49950553768013   -1.20707731246690    6.62525992286451
H         4.41870378754859   -2.22254947220099    7.02068188701406
H         5.09897173563444   -1.22055447666523    5.71310950489472
H         3.50475698778054   -0.83238691589089    6.38452429807907
C         4.93600052197533    2.81083425872992   11.26128844057745
H         4.86104344911351    1.84327934350589   10.77441558267281
H         4.47364799136529    2.74702344667371   12.24019986558162
H         5.98991120808663    3.02473501522900   11.40677423282867
C         2.31303070354676    4.51411690569175   10.64916236905281
H         1.64212778410252    3.70659353173954   10.37608821055283
H         1.94457290719711    5.42147714444599   10.17953104455570
H         2.24009713905595    4.65747998007446   11.72200943804535
C         5.12604257869724    5.76127639714734   10.29584452313589
H         6.14168322733776    5.64691545844973    9.93016894873723
H         5.18717874149027    6.04907853376258   11.34077372150140
H         4.66627701662788    6.59013032293643    9.76532982669578
C         2.84347648705040    4.62729968545219    7.04165634493616
H         2.04789950053156    3.91803352956498    7.26686957908566
H         2.80260386794941    4.87909958222836    5.98190889145072
H         2.70343330546095    5.53112325177217    7.64250507266038
C         5.22543934098373    4.94135717292748    7.07768804205160
H         5.01723657557807    5.92797094313874    7.49846450781475
H         5.35644539630837    5.02823812565451    5.99761741382761
H         6.14539162581085    4.54956342164494    7.51151515868724
N         4.29273819530180    0.24400550422595    8.55591546645602
N         5.13776436644570   -0.30321964511292    7.58563123867363
N         4.16654578180875    3.37645913430938    8.58853077575246
N         4.13108776629173    4.00202421988108    7.33937356768437
Si        3.30652599037870   -0.63311904805102    9.69611030106511
Si        4.12461174354002    4.13331347981605   10.15715786209846
Cl        2.42177740568397    1.50184146758008    6.60262634737371
Cl        5.37701229707118    1.89221938123168    5.32242812815225
Cl        6.87214273754855    2.19517824459904    8.18975721890067
Ta        4.61778116797664    1.83982716783958    7.48802401316859

