36
CSD_code = NILKUO | q = 0 | S = 0 | Stoichiometry = C18H11CrNO5 | MND = 6
C         0.97085686234231    3.25804967533186    7.26624709187102
H         0.74113001277478    3.92069580598681    8.08490345356618
C         0.38112998934413    3.45081555759060    6.03051580559505
H        -0.32102098431566    4.26000703511872    5.89965979413731
C         0.69157882686072    2.62207829676259    4.96532399134152
H         0.22503371540573    2.77645070564155    4.00467346831758
C         1.61353906379092    1.60206162085744    5.13391468769005
H         1.87055628811026    0.96017383108576    4.30497414455616
C         2.20922491406968    1.40245328613093    6.36466762844993
H         2.92806741389574    0.60656694127059    6.49961461761088
C         1.87556929412989    2.21654103857608    7.44422492095662
N         2.51695834984614    1.97504427299928    8.67996472553269
H         3.46518515231342    1.62305395311355    8.57712392211720
C         2.04781311921675    2.07113954964857    9.91780926725048
C         0.61263946029360    2.36040478191127   10.03146253214789
C        -0.31655357167613    1.46686838472193    9.49452160474397
H         0.03096840633732    0.59714725271060    8.95428161750072
C        -1.67072241587201    1.66913943317641    9.68183818193859
H        -2.37739943366784    0.96109388210777    9.27515869244757
C        -2.12089742448273    2.77634924110849   10.38083042076197
H        -3.17939906666775    2.93644257967642   10.51922245957700
C        -1.20713119452494    3.67593942115050   10.90726335310704
H        -1.55363086199663    4.54110618303222   11.45271408425369
C         0.14848245940432    3.46493534446625   10.74764880938425
H         0.86140091506755    4.16580512424516   11.16071232360007
C         4.72830156408498    1.36247244290183   10.70776746291653
O         5.79995531027957    1.17392502391611   10.32708070634195
C         2.52799685119461   -0.11063533143882   11.10359190489568
O         2.08957310278740   -1.08867016186148   10.68583811176881
C         4.06672709048841    1.08597700025477   13.10420028388897
O         4.69005154808679    0.76359374382314   14.01480947505759
C         1.60769358803768    1.74475349064682   12.71115710995711
O         0.78481263955161    1.76566972167383   13.50993489863236
C         3.49847197462634    3.41274328196453   11.79776910764395
O         3.71090836415844    4.54040840359630   11.85392469295891
Cr        3.10052867671556    1.59879918608003   11.58735464747173

