81
CSD_code = NILKIC | q = 0 | S = 0 | Stoichiometry = C34H42P4Pt | MND = 4
Pt        2.62542719429608    9.16572086120332    6.97967009129430
P         2.44393760365392    7.41218166721317    8.41181916410847
P         1.51304188259603    9.08785280080579    9.13463204513992
C         1.41078674321934    5.87784889663646    7.93857556981040
C         1.37898301562181    4.84538016928087    9.05827669739124
H         2.34160980481727    4.35377489658646    9.17886544134311
H         0.63758563393111    4.07867638205618    8.83079325333014
H         1.10334980215785    5.31955913180388    9.99957782385876
C         0.00376434553292    6.42145326496562    7.70560287535674
H        -0.40982670914089    6.81534082112055    8.63274465773232
H        -0.65261834572199    5.63854957328518    7.32728483717076
H         0.03332843522069    7.23589861571732    6.97936047686461
C         1.93833176782457    5.28759259331156    6.63434797897573
H         2.89513436734528    4.79187333094020    6.77168136611539
H         2.06429342211786    6.08330437780294    5.89680017679493
H         1.22928249735936    4.56125393873087    6.23677215094219
C         4.13048704582452    6.95331170588586    9.17893158909916
C         3.95646255935616    6.53928106000024   10.63701543556979
H         3.30458980997940    7.25105990137611   11.14413461222452
H         4.92232997307877    6.53359826645401   11.14263460630089
H         3.52156142857325    5.54720526616522   10.72622866023957
C         4.87176749466481    5.89612158763650    8.36900726431717
H         4.39501321721995    4.92212140571263    8.44650881265205
H         5.89258388741112    5.79786793850270    8.73959963583699
H         4.91819255206363    6.18565261524228    7.31903066419019
C         4.90948638944904    8.26764259907466    9.11753359317986
H         4.45186574504092    9.00565650096443    9.77595147698528
H         4.90499049394347    8.66876125068496    8.09230862325429
H         5.94445403668110    8.11910208139187    9.42395866420197
P         2.61586404822939   11.29908768751192    6.20414226153242
P         3.70276525447830    8.63800142245079    4.97789924532502
C         3.07948702120323   11.26256257493158    4.40834491220317
H         2.18559624731886   10.93408815937405    3.86343755021325
H         3.34937237560767   12.25420768609175    4.03569517588235
C         4.21090142819239   10.25938767095203    4.21811870143097
H         5.10587907602198   10.61634288913097    4.73797960790747
H         4.44948873265117   10.11434496306990    3.15903570414955
C         3.90852824980758   12.30765258530199    6.99615017550332
C         4.76226624873362   13.19655487203837    6.35318014732296
H         4.70424134514302   13.35069640173676    5.28460983983105
C         5.71013506606746   13.89256352604984    7.08345163375227
H         6.37436887742684   14.57992169681430    6.57855245586509
C         5.81181948086064   13.71156517260999    8.45257340624037
H         6.55582207207116   14.25813556458188    9.01357684865305
C         4.96420071042837   12.82522810371018    9.09841745037270
H         5.04430936590200   12.67842371814476   10.16537266315996
C         4.02135961703868   12.12357184467633    8.37278057570200
H         3.35931643423354   11.41234639669368    8.85652973076995
C         1.17659654928612   12.40974941567660    6.20503787458157
C         1.24631403820043   13.73223118513303    5.78226671727703
H         2.18867112499216   14.14763590596868    5.45293393946638
C         0.10798767878128   14.51611424419825    5.80007747674304
H         0.15800205659028   15.54493393817910    5.47314915780436
C        -1.09563916297286   13.98766263205998    6.24150461534320
H        -1.98049499005937   14.60728331164209    6.25433375810597
C        -1.16315205891324   12.67421327298188    6.67586441328589
H        -2.09838174148089   12.26824936776573    7.03193239431665
C        -0.02709875715456   11.88579177618320    6.66009224218923
H        -0.04823627283034   10.86147781853673    7.01676125278567
C         2.44591403306666    8.16099470573669    3.74954295661743
C         1.11811137457026    8.27315485629607    4.14683156329565
H         0.90871745048410    8.59093817802133    5.17183413580983
C         0.09486762317588    7.98838512280770    3.26265770286881
H        -0.93442070841348    8.07677156117821    3.57760138345897
C         0.39822819992483    7.58638172488661    1.97194287381034
H        -0.39613861621039    7.35691007853664    1.27700079373606
C         1.72023264373418    7.47774692595220    1.56833698265130
H         1.95200445313592    7.16688845978393    0.55975241937139
C         2.74548515641166    7.76807631609168    2.44988808293968
H         3.77696957832563    7.68361567966761    2.13473179498357
C         5.10864354576892    7.55138428572242    4.60532967230631
C         4.87952770082000    6.21307138398864    4.28872904231780
H         3.86509213734320    5.86276961863862    4.15515236930880
C         5.93919661674193    5.33873818493774    4.14245463306515
H         5.75128697756764    4.30577096555453    3.88791040118712
C         7.23889165523450    5.78248960451339    4.32760101044503
H         8.06641230961212    5.09816159208909    4.21346497322795
C         7.47291552634905    7.10372560924213    4.67253959796749
H         8.48401040470079    7.44961217644310    4.83242267815061
C         6.41570427623610    7.98145700785448    4.82196635344860
H         6.60596145151527    9.00498665735203    5.11385840701400

