41
CSD_code = NILLIE | q = 0 | S = 0 | Stoichiometry = C14H14N4NiO6S2 | MND = 6
Ni       16.50100993891515    5.62395130329519    6.87206531674248
S        13.00935786827056    3.73012758621393    8.82799941133240
O        18.41628566246460    4.12491110628958   13.23265484871940
H        18.52221273295481    4.06269822205579   14.19518329877523
O        16.95074024203259    5.72763891991105   13.75329962428555
O        16.15073922808278    8.11262458995188    7.04705291725247
H        16.66998892964074    8.37148140557503    7.81393889443454
H        16.63723991057774    8.43113466542679    6.28046305803022
N        16.85798216859984    5.52607816346767    8.73824052058870
N        14.74966174504159    5.09063918646636    7.17259230487168
C        16.12237249133407    6.19058943599371    9.63087460614548
H        15.34491768265057    6.83511852231289    9.24208502105788
C        16.31527111393965    6.06517328882256   10.99359745403062
H        15.70771025426551    6.61174598266129   11.69736578001253
C        17.30865672823724    5.20745332353511   11.45789077564468
C        18.07454115815624    4.51786382368300   10.52355457318446
H        18.85509067603528    3.84658168833477   10.84236257357045
C        17.81794124350462    4.71179707543802    9.17791278701483
H        18.40104180767581    4.20015026778474    8.42290828855906
C        17.51967230710498    5.06652063615576   12.92551800321276
C        14.03348612785892    4.50871040522852    7.90884376042283
S        19.99039956554747    7.52049903201001    4.91526746025249
O        14.59386085878876    7.12502179783482    0.50989425090434
H        14.48882265705948    7.18722537021415   -0.45272522928260
O        16.05504035424402    5.51780300515218   -0.00915600519614
O        16.84992095954152    3.13527627031333    6.69627275268940
H        16.32574208546932    2.87611797154606    5.93261200980110
H        16.36894414458020    2.81573567734839    7.46645953343246
N        16.14450330323782    5.72104908638165    5.00589454916761
N        18.25224911209627    6.15795718547370    6.57122942966547
C        16.88002340834579    5.05527264297370    4.11412184971978
H        17.65607332401693    4.40960067167687    4.50383142499053
C        16.68856512973124    5.18064029083450    2.75119925147470
H        17.29584413687132    4.63286017367586    2.04812290087301
C        15.69699107575465    6.03987276137971    2.28582191327607
C        14.93125774511543    6.73080559059331    3.21928286413948
H        14.15216681110804    7.40335137924487    2.89956872520392
C        15.18614921285332    6.53661994841977    4.56521866983623
H        14.60315653377427    7.04929745157796    5.31959809491345
C        15.48749790247707    6.18089036986949    0.81799534344586
C        18.96787166203623    6.73991372487846    5.83448639280738

