71
CSD_code = NILRUW | q = 0 | S = 0 | Stoichiometry = C34H28Cl4N4Ti | MND = 6
Ti        4.96769106356949    1.33729643689898    5.33816034167887
Cl        8.94562006394213    1.60784413248798    1.42713119479316
Cl        5.05586518493011    1.95814835591293    7.46370529709174
N         4.72141262763824    0.89050955694808    3.20785927933075
Cl        4.49139272630812    3.42866422150661    4.79785780387116
N         3.21443789097742    0.50552024914192    5.60065195968666
Cl        1.57178737556972   -2.58196532749963    7.39552734001056
N         5.57202142129219   -0.66704016301432    6.02192899418943
N         6.82521480843012    1.50838202341372    4.73548134385768
C         3.26516875036750   -0.68519806700770    6.29768208170818
C         4.54106273334737   -1.24067844209120    6.55285055763978
H         4.62410826172420   -2.15300678340672    7.14598520890672
C         1.97236345108176   -1.14179887583701    6.57174281260276
C         3.50445338596199    0.78442189906253    2.50860548805885
C         6.87913830681319   -1.09499490553501    6.32452212580106
C         2.74591828076845   -0.39167555092275    2.62241351792961
C         8.06154815784768    1.71744063712973    5.25548441947371
C         3.01077081995822    1.86553301495515    1.75498653420957
C         3.31054518105165   -1.63711145709829    3.24036759532184
H         4.14640870856770   -1.41409664707079    3.90021330132083
H         3.66515194872409   -2.30194349419931    2.45068801308172
H         2.54161353516675   -2.16555659571117    3.80021856631408
C         7.73664939525590   -1.46007974454593    5.27418646007937
C         5.81529254782931    1.20373643914535    2.59022066411850
H         5.87703629770876    1.23829261430875    1.50121658259166
C        10.39106391734494    1.97415533844169    4.51917627812995
H        11.12428947182222    2.02899663667221    3.72855476479335
C         8.31450334901749    1.62859655032162    3.01310433927239
C         1.32082518172011    1.91188682103499    4.79952618439031
H         1.94301625624374    2.68884717042797    4.37712986281362
C         6.97196186405360    1.45555762235539    3.36422600528767
C         1.07696695440836   -0.20283206468233    6.01986096486927
C         9.03796012920068    1.78882063671250    4.21204840549393
C         1.90207589712270    0.80929383169092    5.43493565488350
C         7.22026292610834   -1.67520189746557    3.88200722887281
H         7.96907512536331   -1.38641142302478    3.14773852194307
H         6.30543007736348   -1.11390431171632    3.70480551295192
H         7.00275618755228   -2.73536658582589    3.73913633283156
C         3.79760518935553    3.11804907163564    1.50438425491661
H         3.12143642743398    3.96449062970723    1.40857087899738
H         4.35528426697278    3.03331961236640    0.57072777651689
H         4.49822368464200    3.33091329758294    2.30939196040417
C         0.95309153773400    0.64700129783186    1.39606943544824
H        -0.04452347908632    0.60624633073018    0.98683238882667
C        -0.31785621873091   -0.10976398382016    5.94622642416223
H        -0.93667224661836   -0.87429140759732    6.39134306595610
C         7.35448100646345   -1.09685523467676    7.64795088097936
C         9.07229461867714   -1.71705344995748    5.54142802026984
H         9.72821142505283   -1.98105639879433    4.72531495240278
C         8.44851052997894    1.85664526892563    6.59258407546786
H         7.70789950710085    1.83045972759188    7.38003549847773
C         1.73012954955499    1.77586258484043    1.22497020726163
H         1.34062307016637    2.61451570903704    0.66694127917135
C         9.78372888753523    2.03214945845782    6.86079255052911
H        10.11014097745830    2.13716806189968    7.88477139952118
C         1.47411957558607   -0.43894843809436    2.07227275985595
H         0.89253210287474   -1.34277974483274    2.17606075786910
C        -0.04966577363836    1.97001894654280    4.73809528973770
H        -0.52375061811203    2.80716464556848    4.24788720035936
C        -0.86159137255402    0.97010320914405    5.30003906635289
H        -1.93435448718526    1.06615503371556    5.22433589406759
C         8.70005102115306   -1.36017014045523    7.87003524291207
H         9.07172976882539   -1.33891793194114    8.88379956868254
C         6.47608847081579   -0.81842581487932    8.83140150491497
H         7.06405997580422   -0.37289697945711    9.63050842709024
H         6.05173529888374   -1.74794536015271    9.21319079572920
H         5.66087638468906   -0.14059619193038    8.58601630437692
C         9.56365716954994   -1.64365946099311    6.83043199433472
H        10.60877890432320   -1.82755204519755    7.02595605237014
C        10.74634567981533    2.08439614459543    5.83849965217070
H        11.78311890331074    2.22447170068785    6.10559689966702

