59
CSD_code = NILSAD | q = 0 | S = 0 | Stoichiometry = C30H16Cl4F4N4Ti | MND = 6
Ti        2.59096808104653    3.50463565584326    8.91840695680194
Cl        4.71814108859023    3.74037639744450    8.36040384887049
N         2.03000207415073    5.36212468740195    8.49305818453846
Cl        2.07128701241935    2.79660801163160    6.88876160120026
N         2.93436687280197    1.71804798351528    9.71402831975043
Cl       -1.26097837426075    7.28380818511416    7.52646789786796
F        -1.31682139988461    1.95732452960341    7.63632679284334
Cl        5.02742539706455    0.18554491349563   12.66839840443653
C         1.80933933536698    8.78975641039160    7.39270102594997
H         1.02045731359043    9.45873597819636    7.08406469126932
C         2.81837359369406    0.39746324040747    9.42889019936273
N         3.23633940850465    4.06469412471750   10.84647774638728
F         1.06540716701483    2.32193712332008   11.66878299658921
F         5.72191410977525    5.30867183505183   11.40330549252340
C         0.31390810589626    6.73370283212604    7.85767819972952
F         1.04163609499713    5.56188748633153   11.09503354563885
C         3.70823967295693    1.81100628046042   10.85567092048190
C        -0.11343102552324    4.34727899693731    8.70455380289257
H        -1.19578764203214    4.35289598173665    8.57432920126067
C         0.66257347012053    5.45350127290766    8.31340200471403
C        -0.09533273520919    2.18312440459002    9.64260313645043
C         3.37011511929990    5.38607854302495   11.23190732809966
C         4.08774084795696    0.53370193987977   11.29442719977523
C         1.50815772925793    7.47094840515302    7.75775352304352
C         2.54826591069790    6.56974609946390    8.15853817998309
C         2.11886859743009   -0.23168463964180    8.39143037090934
H         1.60322474870895    0.35694632493768    7.64608374956998
C         3.52237418673911   -0.39097171540185   10.39710755828617
C        -0.96736216583821    1.44957423484674    8.83052484439184
C         0.24445353633930    1.60077753759830   10.86772568686925
C         4.58993331135963    6.03027452023402   11.46597806128296
C         3.87852802722769    7.00696155663936    8.18605604726813
H         4.67053930045949    6.32683243518451    8.46528003891375
C         2.13054681403850   -1.60364897602232    8.34356089270924
H         1.59960409288037   -2.11027706274611    7.55141818575831
C         4.13894283682818    8.30673519903211    7.82916072874922
H         5.15748077608116    8.66519073844432    7.84192338612557
C         3.11809024447119    9.19183042784957    7.43897691545060
H         3.38093264156213   10.20231250798945    7.16452436526591
C         2.22629967240984    6.18796876811663   11.29503809055391
C         3.50227646571584    8.14016199527494   11.75528311799934
H         3.55694549877053    9.19947884619691   11.94539105552397
C         2.82060388019044   -2.37724154602220    9.29397310821270
H         2.79956411086943   -3.45294954513582    9.20507946702491
C        -1.44212317947077    0.20633820920141    9.20413545888240
H        -2.09620404987918   -0.32667762067685    8.53298383120892
C         3.51991994528220   -1.78969305999305   10.31496441058514
H         4.06054992116434   -2.37483788951358   11.04327803930405
C         4.66351830801716    7.38782115415222   11.71534057328851
H         5.63037899528677    7.83949093347867   11.86850990438468
C        -0.22119216284850    0.36898579524397   11.27050742525603
H         0.07988444650234   -0.03118518861108   12.22475339395605
C        -1.06565224495456   -0.33224389525200   10.42249359818058
H        -1.43133791719226   -1.30292301799555   10.71467824805885
C         2.26833316277966    7.54021524537843   11.55199950538729
H         1.35285617506921    8.10795038314798   11.58301730248819
N         0.51816346094827    3.36705554601521    9.27637654096476
C         3.88225720530326    3.09074251226497   11.41304597551337
H         4.49089412945606    3.23028796701225   12.30672892120848

