39
CSD_code = NILTUX | q = 0 | S = 0 | Stoichiometry = C12H18MoN4O4 | MND = 6
Mo       -0.03354834626354    1.79797106629148    3.98304522788153
O        -0.82178026473647    1.46939097450928    5.67848803135932
O         1.25889940713905    2.76723898814723    2.98601014640163
O         0.43569725034635    0.25279548828940    3.65001611929188
O        -1.36548431911567    2.24656440300741    3.12085540442022
N        -0.29861532329276    3.79845804179965    5.01394081914098
N        -1.37828412660999    3.67394349640125    5.76796065758924
N         1.86570818139603    1.87522564547471    5.21665285403857
N         2.86016099368304    1.89082568412433    4.34455652214526
C        -0.17257083578262    5.08704338594874    4.73163742926576
C        -1.19963899009802    5.81137920849882    5.33513577466184
C        -1.95661579589315    4.86078149420069    5.99056035597860
C        -1.76445912994586    2.30560912161776    6.18559800405167
C        -1.77283580988633    2.26180986794661    7.72587100864017
C        -3.14865718236998    1.99556685407344    5.59560834577718
C         2.34485114991762    1.35616357560878    6.33783290439305
C         3.69366504969617    1.04054158918882    6.18036377242080
C         3.98453836233273    1.39800598070578    4.87888882871303
C         2.56436073117372    2.39198900880223    2.98173803888378
C         3.48584291090330    3.59587397480192    2.70612501565554
C         2.80378354601984    1.24691544930972    1.98588706088906
H         0.63449087794477    5.43240025465748    4.11365915754055
H        -1.37032375490983    6.86759281895454    5.29692250720193
H        -2.84369154055413    4.96662884563131    6.58163505315926
H        -1.95620132163460    1.23780110846540    8.03921486927158
H        -0.80221915542745    2.57521069521338    8.10622814910246
H        -2.54675499803731    2.90672489634136    8.13260400459445
H        -3.89227891282318    2.72445451089928    5.90640236782444
H        -3.04799715421426    1.99890072093769    4.50721220463905
H        -3.44978125558147    1.00145699677035    5.91705025679298
H         1.70964536388297    1.22972951665830    7.19401210128268
H         4.35762403853038    0.61151594635634    6.90234490943369
H         4.90088319488819    1.32889089547806    4.32842472367512
H         4.52838234830840    3.29222551302575    2.67140994589620
H         3.20569234878723    4.03102230474119    1.75084551868097
H         3.35172317948089    4.34519028750333    3.48427727862677
H         2.08366298054699    0.45762214081475    2.21653528528672
H         2.61232180731983    1.61369867749778    0.98036526637523
H         3.81760449487847    0.86114057130517    2.05068407901257

