41
CSD_code = NILVIN | q = 0 | S = 0 | Stoichiometry = C15H13CoN12 | MND = 6
Co        2.19150605993106    1.19269042295475    4.93460369373439
N         3.59084888084959    0.28056249309778    5.88798025017886
N         1.86798433429038    1.99206669539447    6.67129006685662
N         0.85751123879271   -0.35698970543958    5.31350528162295
N         2.58438530258120    0.34535246172854    3.33282629028177
N         2.88732646023913    0.70503724405762    2.25652288552319
N         3.19940277462049    0.86811191791046    1.18108999966612
N         0.78850743703956    2.11733647749744    4.17012573787618
N         0.35920332840694    2.26771307904963    3.08763182395446
N        -0.19685755537912    2.49151745290622    2.12724007368483
N         3.37765685921381    2.55942097093573    4.52215679162363
N         3.43374481817488    3.63709123234210    4.97817067899371
N         3.61993729151359    4.68778189027609    5.36451351835262
C         4.47096296093595   -0.57524200231006    5.37504713317020
H         4.37099078987694   -0.77666337226233    4.31727994924553
C         5.46932044962356   -1.16877597413412    6.12171370335954
H         6.15939608040963   -1.85191601229488    5.65389792088867
C         5.56723759125039   -0.86184430855139    7.47417758297996
H         6.33315244972820   -1.30803346211707    8.08932702399044
C         4.66976912197686    0.03862094481398    8.01180762735365
H         4.72618383291612    0.30511515801754    9.05455075886103
C         3.69349742909461    0.60680177919733    7.19342403214152
C         2.73716786767989    1.61223212570478    7.62966935162272
C         2.72532227193416    2.19770278642533    8.89553372400344
H         3.43268827231571    1.88445428462330    9.64574616975827
C         1.81447064794537    3.19763429869130    9.17206430165989
H         1.79694416877325    3.67063052649632   10.14161303278492
C         0.93542717942213    3.59233632162251    8.17119020458734
H         0.21908868108567    4.38037919537603    8.33541328989757
C         1.00145921639622    2.96398968067933    6.94295263152463
H         0.34978512976348    3.25499996036197    6.12995357862729
C         1.13629361300947   -1.60609462247193    4.94975716206754
H         2.13103119691815   -1.78731688455698    4.57096914710284
C         0.21392848691334   -2.63608323109252    5.01799634347335
H         0.49325541986496   -3.62836825458141    4.70130540094033
C        -1.06213187766191   -2.36497003850983    5.48376268619988
H        -1.80988663672487   -3.14138802081613    5.53990859303339
C        -1.35294600525113   -1.06652766977471    5.86927188056449
H        -2.33107911638143   -0.79860837547820    6.23594386788015
C        -0.36730855160607   -0.10028366152282    5.76631839022019
H        -0.57707790048322    0.92202619575238    6.04544741971176

