51
CSD_code = NIMBIW | q = 0 | S = 0 | Stoichiometry = C18H20N2O8PdS2 | MND = 4
Pd        2.52925908412987    4.43328816570846    2.30418020626191
O         4.30686103166148    3.38355423386210    4.01119129722364
O         2.90747978155077    2.56318558545828    5.66762384899520
O         3.88545920997418    6.00297813264312    2.65614127440954
O         4.16009417037747    7.98406389457554    1.91578208678046
O         2.67262935187051    6.70900601395791    1.04598938380342
O         1.39538685094528    5.25894693807333    3.84281388646278
O         0.08714102926953    5.46373544713530    2.16712795336245
O        -0.44858809319992    6.30396214873538    4.06379434071864
S         4.00553343752889    3.84450531476468    0.65134698883426
S         1.00099084142891    2.71926511894711    2.03435415256185
N         3.55714217023617    6.94807186057022    1.85355019570472
N         0.30602855415913    5.71070684785047    3.34198031775366
C         5.06234228230623    2.30527290866563    3.62910881072930
C         5.18548120427220    1.14043141544049    4.37732601498808
H         4.67085844494598    1.04711487235235    5.32014965270089
C         5.95320864073704    0.08956801778132    3.90313570607129
H         6.04169288608807   -0.80897320632877    4.49386409298126
C         6.60272327574062    0.18886821142703    2.68624237979935
H         7.20670295133616   -0.62707491874933    2.32198398324576
C         6.47758370968154    1.34592775541737    1.93675503217530
H         7.00080822996525    1.43245769664227    0.99534434533294
C         5.71263515931870    2.41386205261956    2.38700290107217
C         5.59446682870251    3.66098046429128    1.58148072037962
H         6.37938780467416    3.71625144621295    0.82693469223999
H         5.61950349515727    4.54692663474011    2.21951844286866
C         3.82691887474827    2.16066389626836   -0.04588511151393
H         3.32477091303669    2.30049228949015   -1.00377416977621
H         4.83785308759243    1.80032684976361   -0.22848718077737
C         3.05777753286234    1.17245677180813    0.81957955838623
H         3.46202284277526    1.17444631344933    1.83490208154962
H         3.22004341802007    0.17148726677471    0.40903881892863
C         1.55958863916989    1.44444328256692    0.84455037184711
H         1.00816039676324    0.54108439413359    1.10539689301799
H         1.21113726437036    1.79543284211853   -0.12727706076677
C         1.13836065236418    1.72774994586590    3.58892097209304
H         0.48007985073787    0.86848861031430    3.45110052865028
H         2.16822317489533    1.39920709980264    3.72689625510511
C         0.68976756216466    2.58048255271156    4.73208455986696
C        -0.63582048277076    2.99326660039649    4.81857176938520
H        -1.33718266363707    2.66118321694108    4.06657328772670
C        -1.04818770099335    3.84590315169706    5.82417871848342
H        -2.07315471966681    4.17773118838130    5.86191684031810
C        -0.13495461852138    4.29879623166443    6.76139803870191
H        -0.44781919222105    4.98293395871291    7.53386455516417
C         1.18262314789099    3.88638226018259    6.70077290542160
H         1.90298515586689    4.23205567108908    7.42670974006371
C         1.59722315750801    3.02998047189518    5.69061991571077
C         3.90746494712873    3.48935825323582    5.35951221333199
H         4.76666327286909    3.29139205094709    6.01728432154022
H         3.55524315417888    4.52307177700443    5.46342847008349

