42
CSD_code = NIMDUJ | q = 1 | S = 0 | Stoichiometry = C10H20ClHgN6O4(1+) | MND = 7
C         1.08754012901175    5.42628234907354    6.29340142790161
H         0.10856756711065    5.12554181354762    5.91655233799669
H         0.97662991830866    6.41132348873937    6.77252088948115
C         1.54240428853306    4.42624971877500    7.36056177736927
H         2.51187905693477    4.73614951479292    7.75137108966334
H         0.81844691272506    4.45618235950897    8.18950283623560
C         1.29438382321851    6.01069290306116    3.97170418049383
H         2.03378074335716    6.29402197733056    3.21836626641049
H         0.67779684494131    6.89163241395006    4.20794564695203
C         0.43494166218709    4.92419361508155    3.33613377815739
C         3.19524295250443    6.27332123028027    5.42062469657438
H         3.60421325768279    5.96128183260182    6.38257135679399
H         2.99646682502739    7.35596639276856    5.45051370509854
C         4.26219226562617    5.96669923558033    4.37299348178276
C         2.59970244776022    2.28188186359198    7.66935423490368
H         2.51660297586049    1.23137459939751    7.38035039903003
H         2.36424971430054    2.37273986053222    8.74154704423161
C         4.04700677556699    2.69350810468923    7.42257356284574
C         0.41218421666628    2.38706626516191    6.68250490409177
H        -0.30084453972080    3.07371538041705    6.22328903730529
H         0.00283118168020    2.04498369273580    7.64586507410769
C         0.55643739442265    1.20587623281631    5.72585335340348
Cl        4.40166537625352    1.73119572267824    3.46959184593528
Hg        2.92641691056235    3.05498709361904    4.42464320039735
N         1.99049738257041    5.50440922424017    5.14792844942240
N         1.68810116332660    3.06703809097552    6.84509187221749
N        -0.47960291981901    5.36025406663297    2.46192830799965
N         5.33970132367142    6.75653624365805    4.39704724840611
N         4.94609666166155    2.14716445812745    8.24715945474662
N        -0.47754014842921    0.35763940964252    5.70028674572060
O         0.55574622768421    3.74173881607182    3.61340789476713
O         4.12295015433008    5.07819758916012    3.54884030902465
O         4.35718943673502    3.49242141044302    6.55217828851024
O         1.55343547192241    1.03779781477538    5.04744167935630
H        -0.53743094296425    6.32358618061130    2.17873272250042
H        -1.01630460424107    4.68157345227168    1.94294666346217
H         5.48809805202072    7.45066035878302    5.10902183990016
H         6.09938992446323    6.54635838444492    3.76705254907162
H         4.70193961636403    1.43193367231861    8.91090000395073
H         5.92549841038930    2.31270929760406    8.06946479291705
H        -1.31899210003841    0.50565754654064    6.23003910317607
H        -0.45051181016903   -0.40954367703223    5.04579594768815

