85
CSD_code = NIMJOL | q = 0 | S = 0 | Stoichiometry = C34H42N4P2Se2Ti | MND = 5
Ti        4.08572500501581    1.75754355093473    4.47805130002687
Se        4.39023638952988   -0.05192344875694    6.80600468045488
Se        6.60074542223152    4.84895558515502    3.12674826027777
P         4.87634988819060   -0.93445901471665    4.94515467699649
P         4.66073126331529    4.13784862176696    2.74839536313628
N         5.30524307313596    0.30441680177081    3.99488200821785
N         4.45598123052453    2.51240097994297    2.70673550713880
N         2.35385771039836    1.16056863992181    4.34150765293451
N         4.63129762013695    3.00227927886494    5.68364533895045
C         5.47402195709030    0.30549565368012    2.55859099744647
H         4.58324133084427   -0.11568995582943    2.04867943587400
C         6.71888308975404   -0.44989483797533    2.08881598015495
H         7.59440880249154   -0.02860944746274    2.59060420957264
H         6.64634957398427   -1.50290367860280    2.38083076586058
C         6.87008395159833   -0.32054939496035    0.57595247571587
H         6.00979233879677   -0.78400609827541    0.08466040314674
H         7.76688068258293   -0.85128205671598    0.25053223625257
C         6.95904687537876    1.14780584369930    0.16675406873803
H         7.03362711371894    1.22697675497399   -0.91938571185827
H         7.85914523185272    1.59103284395220    0.59787890213537
C         5.74179855843569    1.92672584271594    0.65545229661285
H         5.85399510910164    2.98805349495885    0.41202959597152
H         4.83134388204440    1.56151409721392    0.16995904478568
C         5.59964913738837    1.78567506455495    2.17024888112070
H         6.53750282376481    2.16532887190454    2.63213579080907
C         6.28334840332485   -2.07796783285873    5.13661875703217
C         7.51709276106723   -1.47780598646007    5.35914066068851
H         7.57500575299834   -0.39498978728218    5.37296709306386
C         8.63792138353704   -2.25933572279684    5.56058456716586
H         9.59843349573389   -1.79622244201419    5.73115645604962
C         8.52293884287809   -3.64122202824560    5.54920306300499
H         9.39717943842978   -4.25508848473011    5.70745856565621
C         7.28963437610559   -4.23822143737127    5.34585689915928
H         7.20301717986843   -5.31489963785019    5.34910040821183
C         6.16326460702776   -3.45950912793349    5.14348304847479
H         5.19621618968560   -3.91969276319468    4.99356232086222
C         3.51072255494269   -1.96427212080226    4.27991972865181
C         2.34747348705509   -2.13869010581701    5.01724363696109
H         2.27859842815906   -1.69920018130670    6.00457874728080
C         1.30343622010490   -2.88379151896028    4.49837120313157
H         0.40180026643745   -3.02319124170758    5.07679272302341
C         1.41630958486441   -3.45218224866108    3.23950351295475
H         0.59949356468245   -4.02889664367776    2.83134067594969
C         2.58240373093093   -3.29299596579486    2.50767470950960
H         2.67627391914639   -3.74941558824242    1.53295008584463
C         3.63300931177557   -2.55695522520060    3.02667764027444
H         4.55501320984740   -2.46187161471739    2.46902127492373
C         4.02494242374163    4.80423957890875    1.15627226168762
C         4.49011794207981    6.01321181691664    0.66260113720916
H         5.26574358914625    6.54055509462546    1.20081629624005
C         3.97725098258654    6.52073860962218   -0.51777490274823
H         4.34331909631973    7.46081763952690   -0.90314194796011
C         2.99885897189950    5.82157429450617   -1.20460473773770
H         2.59964396453228    6.21645124873949   -2.12738055744037
C         2.53393971874577    4.61153122055224   -0.71340676820437
H         1.77403727344731    4.06476954838808   -1.25358974791503
C         3.04329567785829    4.10319901992537    0.46654744302431
H         2.69949420996568    3.15312701697040    0.85636098421468
C         3.37924506496810    4.80603675090123    3.85831963527714
C         3.65707691519803    5.92734021198410    4.62782436009463
H         4.66087393617209    6.33247231548057    4.63078757687844
C         2.65722554171235    6.51174091316481    5.38561888087662
H         2.87549418374270    7.38147217226568    5.98759798379403
C         1.37552136849387    5.98803824532231    5.36206168903973
H         0.59278006646353    6.44709260279642    5.94770113303529
C         1.09027798929495    4.88277419440667    4.57303103175686
H         0.08037785668237    4.49746812100850    4.53562179586246
C         2.08635143571961    4.29203643055084    3.81494044564722
H         1.86737903461597    3.46094350671449    3.15545292304266
C         1.74503811171865    0.75194612802693    3.09914416137509
H         1.36600061877541   -0.28315007656014    3.15733675276185
H         2.47269305166636    0.80860775827219    2.28192887641528
H         0.88012150055414    1.39124502222179    2.84372990338835
C         1.37702107700081    1.23453111079595    5.40102583465827
H         0.65343442578835    2.05184077117976    5.23373487006277
H         1.87756025477199    1.39802557931162    6.36167331340909
H         0.80208538751282    0.29687003271193    5.46643606858925
C         6.03919014103320    2.94210602196935    5.99653488357998
H         6.45580609694344    3.95053773617861    6.13321409580493
H         6.58526942778172    2.45754452369203    5.17495099104135
H         6.21364126533701    2.37454410708894    6.92851764380069
C         3.86750671801921    3.51905388031749    6.78715865283552
H         3.94171432148087    2.84530935064463    7.66291322783801
H         2.81438565989224    3.62104207804263    6.50353337814271
H         4.24145992835734    4.50652913575496    7.09534049227754

