70
CSD_code = NIMMON | q = 1 | S = 0 | Stoichiometry = C34H29AuClN3PS(1+) | MND = 2
Au       -2.45023655251218    0.36146964062751   13.80762671575308
S        -1.74935227570423    2.58530423437522   13.41965497550766
N         0.66472254607635    1.54536416206009   13.95129414025565
H         1.66302475914557    1.67719631256158   14.03256249928475
H         0.27916441011109    0.62542305991969   13.82040148993768
N         1.87912703043373    3.88725570640388   13.90214047319127
Cl       -3.93940482428990    6.07182108626534   18.10852321181208
P        -3.22409041989604   -1.74209462486984   14.18326694577473
C        -6.88971241213700   -3.31148129476097   13.33313999674987
H        -7.52098831047226   -4.10851406094747   13.69524577007658
C        -3.42229514553607   -2.14920079946711   15.93635310895594
C        -3.18755253113622   -3.42518761496101   16.43999401330382
H        -2.83617308650907   -4.21141974993056   15.78572089193975
C        -3.40026230037032   -3.67710160357599   17.78359460567495
H        -3.21821926720364   -4.66567670699684   18.17698558951058
C        -3.84611028599712   -2.66719235216047   18.62133935416174
H        -4.01051144239756   -2.87095829926698   19.66814092261766
C        -4.07802494042159   -1.39539471482095   18.12038429939564
H        -4.42314418229849   -0.60931176126190   18.77440906168665
C        -3.86380394691903   -1.13353222916128   16.78041162512471
H        -4.03665563572314   -0.14351516537477   16.37554173413964
C        -2.14485897091091   -3.04091314337801   13.53028920414627
C        -2.54035203611016   -3.91856789542111   12.52801764225998
H        -3.54162334880494   -3.86487245964897   12.12448032405175
C        -1.64478595469899   -4.86394066203229   12.05708826062511
H        -1.95168994484620   -5.55094288502965   11.28338138063256
C        -0.36230270504862   -4.93067300134759   12.57541607204794
H         0.32961660363399   -5.67186619042406   12.20647278698893
C         0.03766519017513   -4.04628338658978   13.56701724586057
H         1.03823255976326   -4.09947604413608   13.96883247777084
C        -0.84757935120573   -3.09782462917027   14.03954318750856
H        -0.55334934667944   -2.40316031389415   14.81791930060896
C        -4.85069471274595   -2.05619362352065   13.45602428613974
C        -5.27784072473343   -1.25292340807072   12.40316515499343
H        -4.64264400102007   -0.44759699439449   12.05430591670820
C        -6.50702603030060   -1.48722993669083   11.81427856473927
H        -6.83873058949972   -0.86576495224144   10.99664177221023
C        -7.31166172049369   -2.51525880936835   12.27913802778369
H        -8.27245189872154   -2.69441471589766   11.82182675254864
C        -5.66097426194610   -3.08704883303804   13.92558304527328
H        -5.32906774735226   -3.70262069940235   14.75031035689214
C        -0.08249058317721    2.63246300465915   13.71787614813547
N         0.53360770246726    3.80764027662353   13.72275970095410
C         2.25110350459311    5.11683905515785   13.84663315058396
C         3.62647617143729    5.52635721544213   13.99989451425211
C         3.98892399427549    6.87442152855086   13.92252725442704
H         3.23865108695107    7.63026150313119   13.74913665479040
C         5.31116719796115    7.24728303490775   14.06633231574754
H         5.58266980104591    8.28991764396669   14.00436005537170
C         6.28788213844174    6.28917908081535   14.28890686348393
H         7.31931927899799    6.58615236526535   14.39973497080415
C         5.93856679633074    4.94885866263057   14.36910963911697
H         6.69897201567960    4.20291700817577   14.54288960750896
C         4.62083158095980    4.56747851874548   14.22638863892978
H         4.33584264106785    3.52904788263478   14.28620340949132
C         1.10097437910333    6.06547616217371   13.60304297533830
H         1.23272262027047    6.59376606162263   12.65847499161195
H         1.02220675572038    6.80151612874638   14.40395758734338
C        -0.11318622200306    5.12247093133704   13.58095482378000
H        -0.64744246504940    5.14695602323819   12.62668704998145
C        -1.07718960325892    5.36698003109940   14.71390953229106
C        -0.68628345667728    5.12100336657415   16.02524598864170
H         0.30828705411119    4.75273067071085   16.23516144950080
C        -1.56186490087324    5.33691920800397   17.07214076855463
H        -1.25865144082887    5.14166320935804   18.08831465474107
C        -2.83863253633562    5.80969861185716   16.80645752271217
C        -3.23784305828843    6.07021101509766   15.50403134296117
H        -4.23139655232950    6.43987617331362   15.30777624561077
C        -2.35589881560562    5.84531829243966   14.46382187377620
H        -2.66850727970012    6.03631669303140   13.44860708512823

