40
CSD_code = NIMMED | q = 0 | S = 0 | Stoichiometry = C16H18AuI2PS2 | MND = 4
Au        8.98420893410423    9.70343503680870   13.15268295372256
I        10.69708662477398   11.52784414673061   12.44991871492644
S        10.47138588092457    7.88830000664210   12.55468953881937
P         8.98439706159463    6.66319177861594   13.15256069015568
C         8.43592117539214    5.57227376765137   11.77866827878646
H         9.28772698238606    4.94605681497927   11.49471816692509
H         7.63839726126418    4.92891045530053   12.16341142624192
C         7.94612927611006    6.40305937826467   10.58982203915358
H         7.10873791054526    7.03140794280773   10.90890597712762
H         8.75585811166830    7.05440603424223   10.24642106498019
C         7.51175213683985    5.49002764145067    9.47662292366962
C         8.42049297568340    5.07757957753094    8.51134023320219
H         9.43645447911813    5.44593129592454    8.54051486237788
C         6.20798526874692    5.01474299647993    9.42719122844832
H         5.49321686712312    5.33446214640643   10.17258791203148
C         8.03001186561708    4.20867659874175    7.50785053756097
H         8.74336569786147    3.89921533576909    6.75868044970831
C         5.81718677921341    4.14538657424092    8.42436284089708
H         4.79948437845998    3.78594435148763    8.39224660301601
C         6.72797949687935    3.74024999986897    7.46354415446656
H         6.42262805912117    3.06351115373591    6.67983685148678
S         7.49746423065765    7.88818978753767   13.75033821352977
C         9.53300802702563    5.57231907760515   14.52643108535816
H         8.68126760418826    4.94599811507341   14.81031802046266
H        10.33062506429321    4.92906816248045   14.14168590985214
C        10.02263769310928    6.40314019361159   15.71531856248804
H        10.86007881712223    7.03146979198296   15.39632740345653
H         9.21287939683056    7.05450273565228   16.05862347469247
C        10.45688430472361    5.49009277711205   16.82855821754427
C         9.54807885792900    5.07764264552933   17.79378348585689
H         8.53213221790772    5.44603476381871   17.76458641289085
C        11.76063601803200    5.01478126168752   16.87805342961184
H        12.47545301500492    5.33453849377880   16.13272059581293
C         9.93848478183483    4.20867860951375   18.79725357919306
H         9.22509640421296    3.89921134086900   19.54638991386981
C        12.15135438214054    4.14535796911019   17.88085028620872
H        13.16904336952275    3.78588566421549   17.91300361251276
C        11.24049388994382    3.74019047904900   18.84159198794658
H        11.54577563844043    3.06337382694526   19.62525952534532
I         7.27109906365412   11.52811127074771   13.85542883566066

