96
CSD_code = NIMNIG | q = 0 | S = 0 | Stoichiometry = C36H54MoN3OP | MND = 4
Mo        2.77441954628817    7.29400818180887    3.42690435896081
P         2.01066031819660    5.32820855036443    2.99050511856054
O         1.44229139502643    3.99329472990228    2.72828998407742
N         1.42062257163986    7.97663680646910    4.65628670425255
N         2.76898873719634    8.08197011625989    1.63438956198095
N         4.49784527066950    6.83240557168135    4.22990816594642
C         2.08546385376279    8.86075263539285    5.51825933725547
C         2.20187891103218   10.21818394181887    5.20594867367965
H         1.75892673327613   10.58554072990192    4.29021325423107
C         2.82480409932200   11.10370511896774    6.07353045737698
C         3.34186911780156   10.62745003532991    7.27069227455727
H         3.81695089705402   11.31449448612230    7.95802430944047
C         3.24582475996514    9.28130804388445    7.61082979935596
C         2.61260784807713    8.41252040349961    6.73851267410135
H         2.51704210847923    7.36440433951773    6.99290724497347
C         0.06659462532366    7.57107776814129    5.04359793729357
C         0.07856463971069    6.27115391464707    5.86590179777377
H         0.66402734261018    5.51505412335831    5.33907825691050
H        -0.93573854316954    5.90043388590629    5.99219899478918
H         0.50775987490875    6.43352347198773    6.85172881245887
C        -0.62872310048254    8.67860315076724    5.85243247851986
H        -0.64494518066941    9.60735123460540    5.28468523623084
H        -0.11410960612227    8.85957722853443    6.79391685684514
H        -1.65301373384393    8.38618523594053    6.07080357940171
C         2.59112907942759    9.46018181268073    1.81367640656975
C         3.68654898768217   10.30685472196897    2.00772636667544
H         4.68228673425795    9.88466802850136    2.00838268313449
C         3.52123232516868   11.67794241429124    2.13899856740628
C         2.24178529961068   12.21396710054139    2.08014762837340
H         2.10635441804437   13.28375492159946    2.16609989281479
C         1.12902010202827   11.39936183680245    1.89266491194592
C         1.31233584002632   10.03438231562126    1.75268995709770
H         0.45865653637663    9.38851923091045    1.58957002227256
C         2.62456137616482    7.57198413268008    0.26656984749646
C         1.21322696162352    7.01792727916117    0.00979933800370
H         0.47045325855155    7.81157481448679    0.03397695827840
H         0.96631399759798    6.27657584170082    0.77187736373602
H         1.17200410041779    6.54037475121557   -0.96617545176742
C         3.64055063613166    6.43746884740231    0.07084170838885
H         3.43390926120077    5.62434908986998    0.76861541740400
H         4.64946825736122    6.80848061506336    0.24518814712718
H         3.58273295246934    6.05029145836082   -0.94388599318243
C         5.36582441117683    7.88737292938376    3.91226876860691
C         6.13614396273712    7.84892582643780    2.74324785912182
H         6.02879935037895    7.00363287628436    2.07435007571485
C         7.02452155365266    8.86782447479592    2.43140202113915
C         7.15613523352087    9.93742175119688    3.30784969753444
H         7.86171826605205   10.72635593648552    3.08447953629893
C         6.40530869597992   10.00483603454410    4.47650002645381
C         5.51779493447665    8.98213131197576    4.77026634629035
H         4.95788952926908    9.00526646135047    5.69503770158297
C         5.12048714692188    5.61044965100705    4.74870303805365
C         5.46421245771059    4.62472034738874    3.61866543825413
H         6.27783023791303    5.00091230298535    3.00319655549580
H         4.58270254724198    4.46858592861479    2.99314674003522
H         5.76656608218326    3.66789509420707    4.03731750001367
C         6.39786636436760    5.94011817187912    5.53932471373075
H         7.15459881902620    6.38433949062468    4.89590245052019
H         6.80623186955608    5.03082254142017    5.97384633730725
H         6.17466496051892    6.64015668767241    6.34245144570103
C        -0.74813427900273    7.33265626638086    3.76514164334599
H        -0.33529118238129    6.49190308369510    3.20729687908881
H        -0.72230088186842    8.22164363074946    3.13698262230705
H        -1.78345657393636    7.11126506331485    4.01436679936544
C         2.89971066502083   12.56609839079943    5.75183251138839
H         2.57357891721841   12.75168148668033    4.73214833800046
H         3.91664346298422   12.93594698988391    5.87279215179478
H         2.25875979037534   13.13047916399538    6.42978812286497
C         3.82766830940560    8.79111560453540    8.90395035944160
H         3.65054544581315    7.72619910945141    9.03396134987369
H         3.38534301089728    9.32303582261777    9.74542969675473
H         4.90294425603998    8.96893938216366    8.92806461653876
C         2.93111334983717    8.66696881030683   -0.76916256402921
H         2.19783306303109    9.46937784764196   -0.72397969845132
H         2.91263060396656    8.24024450120408   -1.76904631846895
H         3.91689682726913    9.09324601369247   -0.59092790778102
C         4.70840996311227   12.58099786525111    2.29061036341609
H         5.61580382066767   12.00053767110386    2.43277374740258
H         4.57826482602262   13.25036525559441    3.13946427812501
H         4.82550749640129   13.19628498228393    1.39810703935080
C        -0.24367625020039   12.00332120220473    1.84933128170011
H        -0.99350404929553   11.25395461659975    1.60736561741342
H        -0.28787841925634   12.79553071376289    1.10324900267856
H        -0.49444061781617   12.44312047364049    2.81504317808571
C         4.13385669476399    4.92873010945496    5.70588014864889
H         3.83248327116411    5.62345333969608    6.48783065710957
H         4.59934601338657    4.06220101662294    6.17006801810810
H         3.24766992577331    4.59929276301003    5.16322032075393
C         7.81500917237185    8.80644467358119    1.15765297975423
H         8.54116354396444    9.61419216773820    1.10924694556392
H         7.15119367286698    8.88783458487950    0.29628404202360
H         8.34242374573208    7.85679362936116    1.08034303629312
C         6.59357421926076   11.15136922092270    5.42409021855743
H         5.84249775521423   11.12723611290821    6.20908971778463
H         6.52611278464867   12.10208536825083    4.89756859886178
H         7.58031861365105   11.09678233010282    5.88497631373570

