41
CSD_code = NIMNUT | q = 0 | S = 0 | Stoichiometry = C16H14Cl2N6O2Zn | MND = 4
Zn        0.63508848358395    3.61718138391065    4.08274264735945
Cl       -0.53905966653189    3.00851859253921    5.85154574595644
Cl        1.07991857149355    2.37289741640237    2.32373491706920
N        -0.79075207114327    6.36808994367219    3.49490684661793
N        -0.32040475008247    5.19003406193626    3.06289346037379
C        -0.67281077389207    5.03218082700560    1.81481681909217
H        -0.40173641944184    4.18601262067639    1.21578566936214
N        -1.37797430306609    6.10862270147556    1.40244722735650
C        -1.41957420439774    6.91559576278310    2.50247211176149
H        -1.92679157136712    7.85682123872016    2.54471276468856
N         3.34833430220926    5.12482548566509    4.67861216799148
N         2.20754841337516    4.56027738436589    5.09610080694866
C         2.16046695035122    4.62630092002636    6.40047227221661
H         1.34191355312695    4.26411298615963    6.98997154497248
N         3.27099082381653    5.24038445805456    6.86279399879593
C         3.98095460512191    5.53217372853856    5.73364398535447
H         4.94042104808950    6.00576513468725    5.72618226940155
C        -1.94670819020090    6.32546262606420    0.13352795519544
C        -2.01901451186067    7.61857782748974   -0.36954535017045
H        -1.62295319483372    8.44786715416688    0.20046216193346
C        -2.58211074390147    7.83807403230217   -1.62107841862680
C        -3.06692589911138    6.75908932421526   -2.35887084127901
H        -3.49817447973434    6.95064829206492   -3.32756889858493
C        -2.98558384573180    5.48059730751107   -1.84615235824937
H        -3.36251563206220    4.64958179041052   -2.42087473710663
C        -2.42851925336253    5.24975668809861   -0.59898784305593
H        -2.37880944212914    4.25168692895414   -0.19515501353227
C         3.61558591124476    5.49443854229527    8.20345672764205
C         4.33725625954942    6.63974225603612    8.51637223079859
H         4.61088901251647    7.34047722358267    7.73944663245551
C         4.68581411970603    6.89203706688072    9.83789768245185
C         4.30690604412413    5.99448038951111   10.83514556082320
H         4.58637310889754    6.20906583701064   11.85344607718292
C         3.58774941876792    4.86304072566571   10.50820837261132
H         3.29741355067461    4.17212728432630   11.28365935793216
C         3.23612715249895    4.59991706063257    9.19433136380249
H         2.68571915413541    3.70883235156610    8.93981033352114
O        -2.67599493564231    9.07403859340164   -2.16021477282111
H        -2.29908297774143    9.73631684939625   -1.56790668492682
O         5.38488170579830    7.99098988974613   10.19959951672479
H         5.58294467714648    8.54005931205439    9.43095568993705

