83
CSD_code = NIMNIH | q = 0 | S = 0 | Stoichiometry = C42H32Cl2N4NiO2 | MND = 4
Ni        9.73812717934503    4.72237616537352    0.15054443435568
Cl        2.26944165182400    5.15736869218872    4.06559686033844
Cl        7.75191660021991   12.36284222912865    3.42704216542657
O         6.27712862187194    0.55078287009661    1.39909800508215
O        13.08112429557818    9.05475563149518    1.19394676441557
N         9.69550441510410    6.37028310224379   -0.67887355670913
N         8.10013018462127    4.39920727014867   -0.62489667664583
N         9.80034121477656    3.01750703890368    0.88628313058100
N        11.38570688220471    5.05755512658356    0.93712557930707
C         8.79890700543703    6.34300023686948   -1.75444657480410
C         8.80299767242931    7.18619147223799   -2.85997180650320
H         9.53819007784471    7.96841538666225   -2.95285130952282
C         7.89103707808274    6.98497760691490   -3.88138082433396
H         7.90494407106921    7.64044731091886   -4.73879908310951
C         6.99389169826928    5.93163467183358   -3.82784374469129
H         6.30473586891948    5.76577526189616   -4.64187010846788
C         7.00195387303663    5.05573898753051   -2.75673980865805
H         6.35024991893757    4.19734791624198   -2.76542905892912
C         7.89397679976561    5.25585202547250   -1.70921103818296
C         7.16842778285257    3.59834325658226   -0.12168722582289
C         5.74054636473718    3.80930589837140   -0.46178351549161
C         4.96319784560604    2.76951500256918   -0.96266091729086
H         5.41685563120080    1.80852471773996   -1.15632098964816
C         3.61941662012199    2.96890800162197   -1.22101328639180
H         3.02329011133917    2.15722982590875   -1.61064200677880
C         3.03969454081253    4.20237289713183   -0.97820231364877
H         1.98874268745761    4.35385654173810   -1.17358265548780
C         3.81148600783562    5.24426496345033   -0.49054856008642
H         3.36240734057048    6.20801909402216   -0.30271629058253
C         5.15617669225751    5.05343158982724   -0.24097147220584
H         5.75823001758900    5.86236269991498    0.14661771284583
C         7.48578162255099    2.49995366530791    0.69928659547978
C         6.38048703884453    1.76462878433632    1.34180621148340
C         5.36734804513146    2.63180081111612    2.01402165700774
C         4.05188409269583    2.18839128401747    2.11426784463086
H         3.79111376070125    1.23526852920009    1.67987967307961
C         3.09328339029864    2.96042924509280    2.73906297105350
H         2.06906763506840    2.62750132660132    2.79870161749642
C         3.46281651901356    4.17539545548733    3.29549397235292
C         4.77798793039868    4.61247830545401    3.24721938026376
H         5.05070623738887    5.54957378476321    3.70706129295550
C         5.72621530304959    3.84036033894244    2.60495834420184
H         6.75266214443648    4.17565544816382    2.56632409953637
C         8.83987641310169    2.13163727093904    0.97070991461652
C         9.14501079116033    0.72356765491511    1.39174851779090
H         9.89357108330133    0.29713722487910    0.72509531028861
H         8.25285693753487    0.10906130125622    1.35167206911739
H         9.53745422985905    0.70014529326356    2.40895975799245
C        11.17728418109724    2.62372068813164    1.14868668236016
H        11.59120238806618    2.15227099543171    0.24695915350109
H        11.23948834897269    1.90053197251509    1.96855997182064
C        11.99907354307244    3.86702707690444    1.51171698659333
H        12.02712123566391    3.97656744116177    2.60452567859170
H        13.02941440873916    3.73993357153347    1.15842445700345
C        12.01268378794181    6.20660532296732    1.05631016212126
C        13.35071597148060    6.24180688594378    1.73530515002842
H        13.27630443843339    5.84706803365051    2.74876692913008
H        13.74791441589792    7.24901498185873    1.77336733271479
H        14.05831041030385    5.62291379440765    1.18410987361585
C        11.42115617330476    7.42595906881323    0.61397362388215
C        11.91070090184712    8.71618919501567    1.14025896224456
C        10.85218077314422    9.61021981798657    1.69666813508657
C         9.72282393779402    9.08989885518619    2.32315575757287
H         9.58792430323571    8.01987699831486    2.38777388814887
C         8.77400114201772    9.93388919435019    2.86609533335458
H         7.89703323007165    9.53608569719444    3.35256847067733
C         8.95381319986418   11.30619774656981    2.77895854586886
C        10.08620647155572   11.84161449099132    2.18487985499893
H        10.21825368877846   12.91111179594691    2.13826623459898
C        11.03640530678061   10.98915319709595    1.65990498930552
H        11.93030539008972   11.38123488942699    1.19925984501717
C        10.31863580209726    7.46373630139048   -0.26359157908852
C         9.88649738092855    8.80125356072726   -0.74041713465618
C        10.79536302336332    9.67444305209061   -1.32994564585918
H        11.81488221471746    9.35612918449709   -1.49109555286174
C        10.39194599529629   10.93967662092854   -1.71670535763741
H        11.10265535550357   11.61110825117455   -2.17513809423369
C         9.08436525981217   11.34574635179401   -1.51301777650058
H         8.77382621752532   12.33705631539454   -1.80717655652537
C         8.17296919830302   10.47643358224934   -0.93576469714492
H         7.15213717166921   10.78994933453428   -0.77685741280987
C         8.56721646462823    9.20791608957966   -0.55922371283742
H         7.85948834175071    8.53078042889321   -0.10384355578724

