38
CSD_code = NIMSAE | q = 0 | S = 0 | Stoichiometry = C10H18O5RuS4 | MND = 6
Ru        2.26370798494999    2.34545067744340    9.43449489074957
S         3.65153822023996    2.71019889444217    7.59585530272231
S         4.13664837907884    2.50963244931552   10.81698900824024
S         1.90807205996679    4.65399675977197    9.62938471296041
S         2.41314900577189    0.09966758716553    9.27931536655199
O         0.94318817567042    2.09019957146451   10.98545654638022
O         0.55259695563282    2.10748818538464    8.32394788295658
O        -1.35419805300092    1.01737082658508    8.55772432984436
O         3.82059645998641   -0.30949663583984    9.28640716141149
O        -1.15578974362274    1.49320686971551   11.33522171096504
C         5.33691721974274    3.01562622905971    8.30920542071862
H         6.04454584861677    2.62846637928844    7.57687103046071
H         5.47357001581940    4.09150978358626    8.40030351868353
C         5.51592382832416    2.29243106374697    9.62528420331574
H         6.43624810035566    2.59137738641688   10.12595770526192
H         5.50864271577546    1.21104789572267    9.46774432215983
C         4.25397833595761    4.32368114379531   11.18732359715006
H         4.66405227586333    4.40134727813407   12.19429388820625
H         4.95710761173259    4.76809245006153   10.48554432972488
C         2.89438880417613    4.98690956731178   11.14203030296714
H         2.97621679071011    6.06865414061712   11.25243677786780
H         2.25203039346569    4.58452277186370   11.92815309599622
C         2.98572207302765    5.37431040461662    8.30434611135022
H         2.48249432727284    6.28002181555279    7.96545203895540
H         3.93982136948326    5.64782607555724    8.75049654722218
C         3.14385775134241    4.41767103868795    7.14132223679431
H         3.86261277313223    4.79403809782859    6.41273460225260
H         2.18047369244540    4.25321161803906    6.65588734495958
C         1.57875224693177   -0.88984452819426   10.54703900445581
H         1.85072754299651   -0.48236943389946   11.51643733767955
H         1.92408778747713   -1.91290937367625   10.44952236836707
H         0.50717927641350   -0.81112661446837   10.40068538051345
C         1.67469265427562   -0.65429060806700    7.80437401579874
H         2.12845804935010   -0.18547876057909    6.93646386084041
H         0.60667219264809   -0.46683589322170    7.81314481352489
H         1.89574653716697   -1.71517891521666    7.82431427323897
C        -0.22973469188732    1.73308486224772   10.58513898227433
C        -0.39399496728384    1.59648893973755    9.03489597647939

