91
CSD_code = NIMSOT | q = 0 | S = 0 | Stoichiometry = C28H50Cl2N4O2Si4Zr | MND = 6
Zr        6.99552950468835   -1.43426449189226    4.73630972937999
Cl        8.88959666749345   -2.09174612074706    5.99264803038659
Cl        6.35965542970136   -3.50188761886980    3.78039293511108
Si        5.86924090134019   -3.10850711017123    7.66899511695838
Si        4.08336319432939   -0.53609589161906    3.17291294500244
Si        9.22520989577622   -2.16745027065180    2.06010084528493
Si        8.09326284039888    1.61758078685267    5.86221061638001
O        -0.01520968561906   -1.02398233998675    6.92749758263534
O        11.31405319051030    3.62833858036132    1.84154888477058
N         5.71659677634018   -1.94839963605681    6.38693900472959
N         4.96777145719898   -0.81385270851235    4.62724349768938
N         8.35065441045296   -1.09179796673749    3.10402502240609
N         7.84909256573138    0.50233215749987    4.57040785588299
C         7.00891517577057   -2.27338508792442    8.96362495225943
H         6.53805454160601   -1.41151422565528    9.42948857989829
H         7.94509841059699   -1.95087142601221    8.51573144625643
H         7.24970033290103   -2.97661616010747    9.75378949370847
C         6.67782251022084   -4.67906680924800    6.93641272529883
H         6.05216811267270   -5.14124708796239    6.17650692095271
H         6.87005994704288   -5.42001960810628    7.70590380721121
H         7.63036289120838   -4.43146162953097    6.46869660940991
C         4.23956483016711   -3.56218403060276    8.56291007858616
H         3.63354743166955   -4.25402026058200    7.98909945117615
H         3.63306475176233   -2.68417815718529    8.75973912381165
H         4.46232847347348   -4.02856898619087    9.51617613945587
C         4.68970689940488   -1.62611736043723    5.63473030773192
C         3.31810137935970   -2.14106848970319    5.83437487954356
C         3.02191405696016   -3.44820544078043    5.47642390897686
H         3.80230051948493   -4.08079337402808    5.08131731981104
C         1.72129929983782   -3.90717859843830    5.61122975289540
H         1.47728701808781   -4.92059619277925    5.33048992766622
C         0.73260761185456   -3.07859752282361    6.10064746436141
H        -0.28332720363601   -3.42213041196997    6.21341683866676
C         1.02914896112676   -1.76266065540865    6.46100647201986
C         2.32969087342206   -1.29409066232199    6.32039989763451
H         2.60015893912781   -0.28402299600857    6.58552371592432
C         0.21929351524431    0.31136983633108    7.30388384829985
H        -0.74394623018992    0.69623574549928    7.63509627567082
H         0.57756481437236    0.91112334851912    6.46090039170055
H         0.93725224577076    0.37708620146245    8.12768281138903
C         2.74196338667968    0.80802765135001    3.41521245198404
H         1.88053175097450    0.40845131881541    3.94068813553667
H         2.39785749604103    1.17432775615476    2.45480864217388
H         3.11574550880917    1.65742498630784    3.97880401612041
C         5.52025120825664    0.09971365804790    2.08110067649451
H         6.23325334997165   -0.71172867441625    1.91178634596430
H         6.05056291628210    0.91083503938837    2.58291456249558
H         5.18814814197128    0.46400274655805    1.11419032266686
C         3.30321078846736   -2.09206514629520    2.38272762191387
H         2.39699451582137   -2.39135991469450    2.90124506252391
H         3.99853441610320   -2.92747047916604    2.42234582448849
H         3.04613049618993   -1.91998488830053    1.34218775735430
C         7.95590730194304   -2.72849644619416    0.73923409967573
H         7.06563547495944   -3.14810073228101    1.20020179337015
H         8.39172585449960   -3.49755407178772    0.11030039273282
H         7.65202786998804   -1.91199899891025    0.08939894019800
C        10.70289490190256   -1.38505638601062    1.13049915558782
H        11.57163197385614   -1.26458092856561    1.76777117132427
H        10.45151254525812   -0.40741941106890    0.73249843953589
H        10.98813375539850   -2.01748372696678    0.29713251857766
C         9.82395836812070   -3.64295478085867    3.12024028943689
H        10.51591383749181   -3.33004236216709    3.89859853563488
H        10.32315218236019   -4.38963680028896    2.51077619784312
H         8.97849352538331   -4.12565082589681    3.60956268846499
C         8.71942468690726    0.01918743206607    3.69955941419473
C        10.02560444835412    0.67803248107458    3.48162886944952
C        11.16567253608796    0.12723809398635    4.06119823594812
H        11.08087866588093   -0.77805008659756    4.64298480061200
C        12.37949908447356    0.76362653486340    3.89540785028766
H        13.26970322436929    0.34766608155195    4.34325341943978
C        12.47872042884910    1.93355752618789    3.15769796237373
H        13.44293611957857    2.40279456882536    3.04300653259451
C        11.34038244662934    2.48444635329326    2.58027806683078
C        10.10952567848273    1.84982123122263    2.75352126527623
H         9.23184196436498    2.28422618861887    2.30121564844851
C        12.52421006896441    4.30945948912651    1.61178446480065
H        12.26493453556253    5.16992390475820    0.99708968610487
H        13.24164754414529    3.68305952896117    1.07249176881853
H        12.97433759604025    4.65664632489050    2.54734103814485
C         6.60403040434457    1.11399522554845    6.95504963192775
H         6.75329624009306    0.09578029207591    7.32466746354501
H         5.68372863909848    1.12502690113027    6.36847669458809
H         6.46517831424405    1.76727199559860    7.81074381299994
C         7.94423117243484    3.42769925408105    5.26364306874926
H         8.80123293610329    3.71358774791036    4.66240098657900
H         7.89497280887753    4.10354608300654    6.10988752252640
H         7.05257720710946    3.58219285809336    4.66396297110905
C         9.71472007482400    1.38451350468799    6.84812838825585
H         9.89957260199540    0.32867788204257    7.03202098600891
H         9.66874905891268    1.88847006156821    7.80857531382008
H        10.56936268933340    1.78091663196996    6.30812328755925

