44
CSD_code = NIMSIM | q = 0 | S = 0 | Stoichiometry = C12H22O5RuS4 | MND = 6
Ru       -2.09629662765734    5.02652106003104    3.06895164512179
S        -2.94228620924165    4.97996872843832    0.88425276843336
S        -4.23445137663597    4.58321383421904    3.87882791851950
S        -1.68003199551696    2.72949197377602    2.94324336169019
S        -2.39380079965240    7.26716380837020    3.20161083516616
O        -1.54126990922709    5.10847833364204    5.08622588930298
O        -0.21180096083823    5.61502318741628    2.35736386420429
O         1.11142941507798    7.08191179058143    3.33171350664977
O        -3.81120893098636    7.57665340539795    2.97740745383590
O        -0.06011309159929    5.43694797358194    6.66440302185764
C        -4.73666070419386    5.18353688683582    1.21426127232971
H        -4.81167452850306    6.24553784506601    1.46323861586605
H        -5.26846724435437    4.97689582906670    0.28580094071060
C        -5.27188792028687    4.35763201485848    2.36259152656283
H        -5.32002113862763    3.29522582080993    2.13106755534789
H        -6.26907746575706    4.70803835326574    2.62760363607696
C        -4.02970696098941    2.84432657043070    4.43547730924264
H        -3.46675411035186    2.96670496471254    5.36283562274412
H        -5.01943183227538    2.44402132856168    4.65645708099330
C        -3.27412555084483    1.94798118840684    3.47810958127074
H        -3.85080825415681    1.70938865528795    2.58651503634662
H        -2.99856614693538    1.02011359572048    3.97956337750033
C        -1.73393779140529    2.47496342218590    1.12295946338488
H        -0.77003941054152    2.87358281572977    0.80117475734472
H        -1.76594508437578    1.40010037925656    0.94215351493512
C        -2.85846948639460    3.18948920141620    0.40565598489922
H        -3.82951651613966    2.74083528526515    0.60544679772633
H        -2.67595616318278    3.17213879862735   -0.66885088399509
C        -1.89392649723645    8.08590977355826    4.73256253315571
H        -2.28481252133595    7.50966337000763    5.56574148820374
H        -2.30424412990426    9.08912467001756    4.72675367600991
H        -0.80953544763313    8.09233616244854    4.76104612682824
C        -1.46029093193953    8.27978869064165    2.02571558343827
H        -1.67151995187921    7.91292431398426    1.02604566064331
H        -0.40371490516720    8.16100004580981    2.25454488811988
H        -1.78775858456446    9.30688790944374    2.13704877112875
C        -0.33173756263128    5.20422948313412    5.50445443769574
C         0.77769811600468    4.97335183003876    4.44557028460116
H         0.60809583053486    3.96768249416464    4.03119546407364
C         0.56395663832899    5.98688310212004    3.31431891436471
C         2.15993666038059    5.09957877495275    5.06574156677273
H         2.92040900094627    4.71556407174380    4.38883984862236
H         2.19731264016559    4.55515147267212    6.00609426328323
H         2.36620844152295    6.14843678430687    5.26396503898612

