32
CSD_code = NIMTIM | q = 0 | S = 0 | Stoichiometry = C10H15N2O4V | MND = 6
V        -2.72852631504206    8.87273336923571   10.68114363893768
O        -3.34617426671395    7.68169829584225    9.93416516144445
O        -1.45763078309884    9.38749415071910    9.97795640781048
O        -4.05205818587205    8.11772748502982   13.03541667101685
O        -3.91313695368968   10.07379806559350   10.71590725826241
C        -1.47770748969940    6.40436171783582   11.67185676603698
C        -0.55873776038674    5.60247779853783   12.33110411899952
C         0.28646981707240    6.18305950037372   13.26509832218184
C         0.17448357678683    7.54203865751200   13.50032536109518
C        -0.77349274725257    8.27589880857976   12.79227946335733
C        -0.90153101924370    9.76866118658655   12.94829828956859
C        -2.39894674242284   11.44599999697513   11.95431351787015
C        -3.69629678649758   11.35814062417507   11.10854394348163
C        -3.11184906040952   10.12908643812338   13.85175663128762
C        -3.50826255966239    8.69071101708742   14.19730556228961
N        -2.25665695577425   10.19444925861468   12.68285584958127
N        -1.57735572846000    7.70845457030892   11.89876980290547
H        -4.44441865767032    7.25897205950164   13.22398167144315
H        -2.15666883768474    6.01173467056179   10.92367256525757
H        -0.50428483883009    4.54791327688969   12.11282381977043
H         1.01669340835237    5.59217867581573   13.79770873412138
H         0.81372491103412    8.03611958489428   14.21694261664460
H        -0.54657880078753   10.08449900639902   13.94662449725717
H        -0.24073794935838   10.20576085390994   12.18932514508396
H        -1.56031272022419   11.53087010838165   11.26098387625296
H        -2.41459287710348   12.32275729770518   12.62367126144991
H        -4.56531044074421   11.71390370667811   11.69693428087733
H        -3.59388196850135   12.02596618590232   10.23369241426667
H        -4.03220371187260   10.67029597240114   13.62736098930610
H        -2.63124489170599   10.59238406226037   14.73358757422426
H        -2.63346296706574    8.11769597343853   14.54857243587358
H        -4.24910969747144    8.71655762413002   15.01032135204393

