75
CSD_code = NIMWEO | q = 0 | S = 0 | Stoichiometry = C26H36HgN2O6S4 | MND = 4
S         2.51413100577721   11.07158757998309    9.10790011766650
S         3.76785410131165    8.75902966528719    7.71921368258492
S        -0.83041206706459    8.95851875395335    6.51051226858565
S         0.78088771164106   10.69519214354102    4.71597728094072
O        -7.10603928180762   10.89353576136057    2.91370203701198
O        -7.01290830786888   12.51609256652511    5.30330017660827
O        -5.09986591101094   12.33088754385551    6.93249196063712
O        10.53392278151003   11.13972038416615    9.89309946994161
O        10.26097855964359   11.93955604701837    7.16719593820051
O         8.14111107640592   11.43124111990788    5.84833061135609
N         4.85785535966494   10.06083209117718    9.74708228077132
N        -1.54786680341007    9.65747619272741    4.05958768655851
C        -4.07231881728872   12.29367320964494    7.89359149195728
H        -4.35439786944464   13.02359354998323    8.65050228352692
H        -3.10549968275793   12.57503187192637    7.46330923186928
H        -3.98713397919010   11.30565397901153    8.35706230228044
C        -8.11386017451557   12.81620284613150    4.47861519155869
H        -8.65748685547242   13.59613110139914    5.01202146854988
H        -8.76556010559531   11.95148426206037    4.33684644969465
H        -7.80011200532682   13.19506717534178    3.50330006850380
C        -7.11687024128159   10.07258718226628    1.77393283916311
H        -8.04210913324183   10.31611691805071    1.25326067117368
H        -7.12228288283568    9.01015271455649    2.03852725389532
H        -6.26853503728652   10.28193352101471    1.11366316401070
C        -6.05358174676979   10.79539848817936    3.79319072532235
C        -6.06837088290780   11.60827151092641    4.93406633857721
C        -5.00178139277690   11.50870786073063    5.85587854067282
C        -3.95978724414643   10.62565357575854    5.63542895991180
H        -3.14977062896170   10.53879983121383    6.33923900709084
C        -3.94722877568721    9.83525302117979    4.49455688202526
C        -4.98412070815545    9.92651076024134    3.58453909218706
H        -4.96240495456636    9.30368119296689    2.70523496945391
C        -2.78148828460121    8.91222975056906    4.25287649773965
H        -2.64458390482836    8.24825697219615    5.10967278144520
H        -2.95216898132018    8.30527954763382    3.35947683614358
C        -1.41879897748122   10.38256607412536    2.80839129853304
H        -0.37331278163149   10.33375430280032    2.49099983190155
H        -2.03870578967280    9.87276356835085    2.06885272053275
C        -1.84503579999736   11.84216787541920    2.93099273648666
H        -2.88499014475390   11.91561430273004    3.23804887023019
H        -1.72126609747347   12.33531440119684    1.97093170848039
H        -1.22434008912791   12.35189341921697    3.66256856558778
C        -0.62897833844027    9.76292904382190    5.00527256642093
C         3.81990968887215    9.97196995391474    8.93487057249830
C         4.94311429639673   11.09145212952490   10.76497604646693
H         4.44371368852444   11.99048909633905   10.39698242128723
H         6.00204602970502   11.31356047235251   10.91344287749676
C         4.29329437519925   10.64110371471897   12.06897813449580
H         3.23617576670817   10.44658594186869   11.90913290477883
H         4.39312362328383   11.42222483265821   12.81687562303333
H         4.76310259633718    9.73473047801524   12.44414115171894
C         6.00416924386945    9.17021856218596    9.66207403296908
H         5.72169999976441    8.30259044038993    9.06214297164063
H         6.25009396079253    8.83760367877384   10.67376491215226
C         7.17672591507831    9.88103285700671    9.03673968890677
C         8.32105394921843   10.14744756978685    9.76656668191778
H         8.37755752672931    9.81631667460936   10.79113730808732
C         9.39240640790018   10.83169230147533    9.19611759974849
C         9.31275210916642   11.24879002447645    7.86085332898490
C         8.13463709134024   10.98475594534498    7.12977725425719
C        10.67147066766259   10.67037078688880   11.21049203358903
H         9.91797527961351   11.10410939690805   11.87632781047163
H        11.65980363835041   10.99659735037790   11.53157081035073
H        10.61906130542603    9.57790042670388   11.26007349662493
C         7.08061738602906   10.30845072539792    7.72035823396586
H         6.18382522965331   10.09007132645493    7.16591036757300
C        11.62294210244181   11.81697983548714    7.51038924631321
H        11.91014814206867   10.77157404598270    7.64921376089190
H        11.86881822917468   12.38011767679614    8.41329207219468
H        12.16809468665749   12.23203707642737    6.66256392715895
C         6.99397708282506   11.21532268197192    5.06156135566811
H         6.11340994809775   11.70824132254777    5.48605119318348
H         6.78444076859011   10.14817766646139    4.93571094218541
H         7.21862835325288   11.65521554927270    4.09137349778299
Hg        1.52874499409701    9.85782577867023    7.04889288581698

