33
CSD_code = NIMYEP | q = 0 | S = 0 | Stoichiometry = C7H21ClN3Ta | MND = 5
Ta        2.51258633925964    9.85072049651953    6.47298371511454
Cl        3.73700234172667   10.04301071011947    4.52504247973602
N         1.57728788211832   11.57155134718577    6.07458353333761
N         2.08697293394783    7.95187716599131    6.02367703687223
N         1.55466750218990    9.69369448925972    8.18479608182083
C         0.19722673227066   11.65220601435776    5.66810339640594
H         0.09953511142472   11.61822377645092    4.57196324472169
H        -0.27111905145553   12.58294618150972    6.01441866723652
H        -0.34974477495421   10.80986934453560    6.09751959429546
C         2.32108666630503   12.74019074144644    5.67198010540321
H         2.40371337433310   12.79109249784885    4.57544694957096
H         3.32795610048509   12.69770834925979    6.08980995808406
H         1.83649001853429   13.66073373106851    6.02138032641164
C         3.13069723571381    7.03365152991626    5.63983704843841
H         3.26485176886601    7.03258216376366    4.54712994008067
H         2.89817032554926    6.00897811388446    5.95684324714104
H         4.07329560942934    7.33438989526602    6.09982208701661
C         0.79436104407183    7.51435996173383    5.56201379986964
H         0.73054472699791    7.54543716190447    4.46326071956664
H         0.02675351490340    8.17072075193902    5.97837549191426
H         0.57991740421048    6.48485675341229    5.87822045409935
C         1.09324637397635   10.80129744620697    8.98686726877156
H         0.05821427755481   10.64928865549224    9.31760104283077
H         1.15000057288706   11.71638867260031    8.40331094723622
H         1.71455864903252   10.91678152981785    9.88448789178913
C         1.38432146221546    8.47702241455990    8.94207835725575
H         0.34404033166698    8.35378228739000    9.26860935958317
H         2.01506880620798    8.48634461298779    9.84054215438978
H         1.66711584119908    7.62744213060006    8.32609761158835
C         4.47187129692504   10.12830861526322    7.63251639647037
H         4.40037201926796   10.97736006703472    8.31270451293032
H         5.31179162899184   10.30196667935988    6.96167188881221
H         4.69464593413768    9.24401571129943    8.23050469119335

