23
CSD_code = NIMYAL | q = 0 | S = 0 | Stoichiometry = C4H14Cl2N2Zn | MND = 4
Zn        1.64490159162796    1.08271337976989    6.62078265122804
Cl        0.60874187209496   -0.56906447734522    5.60164711132172
Cl        0.89533773621637    2.81049845768404    7.75925715549311
N         2.83277109732247   -0.03443774290329    8.12841122979089
H         3.46683693267569    0.59850811733558    8.61507695184686
N         2.69697689303551    2.05242552662000    4.92159775920050
H         3.23462101305137    2.84645834784079    5.26824287734597
C         1.87631180015812   -0.53406242312047    9.12064022093564
H         2.38189204912950   -1.08255675387488    9.92271074841531
H         1.17059653338160   -1.20115388559203    8.62713512051995
H         1.32776985259001    0.30340794648210    9.54810068189657
C         3.61779754936377   -1.13486007031341    7.56961096600401
H         4.08629893550844   -1.73583850423754    8.35650810791344
H         4.39233393085852   -0.74123384945188    6.91440964001572
H         2.95727095060494   -1.77121778674400    6.98263531764545
C         1.65782796642591    2.58750237304588    4.03718448284634
H         2.09348302615036    3.11089212082417    3.17926680716926
H         1.02735721764755    3.27680837826106    4.59604296151126
H         1.04302678891873    1.76472481834369    3.67455609793111
C         3.59939623495130    1.17034917943557    4.18297648234328
H         4.00024723609499    1.66044437479567    3.28896655439711
H         3.04900494283696    0.28038692331340    3.88170903263169
H         4.42699784936268    0.87010554980520    4.82263104159888

