75
CSD_code = NINCOD | q = 0 | S = 0 | Stoichiometry = C22H44N6NiS2 | MND = 4
H        -1.47765409104607   -1.95221036074062    7.89383802158117
H         0.42505564262156    0.08531376807893    7.03059956612120
H        -0.38457593874003   -3.82095818495971    9.23357792630049
H         0.40378038430318   -4.40827958199958    7.77010088176117
H         1.54903620843529   -2.21456598340457    7.50356767608206
H        -0.70817034592504   -2.55449872870997    6.44550103746761
H         1.79206772336871   -7.58054983091801   11.85493487660590
H         0.70031724350562   -5.69993308797745   10.54831266261741
H        -4.53587774688720   -1.96044932655019    5.19088101436764
H         2.63024498927050   -4.06869353441834    8.83853159406949
H         1.49665257515264   -6.27120400001863    9.08321451483049
H         0.76284408776578   -1.62492726423431    8.96825763552332
H        -5.26840773256956   -0.60605111709947    4.39421377518281
H         1.83658681572917   -3.49586375564571   10.30419725346759
H         2.59725910253590   -8.13869359473276   10.38936023616853
H         3.71806900858940   -5.92783734339549   10.16116280961176
H         4.00420151305714   -7.24228262711483   12.94302987182443
H         2.91700001780988   -5.36863013284102   11.62810138813167
H         4.81121205628003   -7.79578874959705   11.47671919742501
H         4.65524466010728   -9.62962129903649   13.14403396452950
H         2.89837293328431   -9.46945269347892   13.17452288013259
H         3.70745554116337  -10.02278340037669   11.70871684806169
Ni       -1.35284429274093    1.82623016408227    5.30673453125706
S        -3.41248318310381    1.36032228423678    4.56923306543266
N        -4.45039360401584   -1.05303481121295    4.76782324559522
N        -2.40875325572047   -0.79052362883080    5.77090116518288
N        -1.36148484311689    0.03769698527299    6.02551032459121
C        -3.39398209291518   -0.28180637106778    5.09810874678984
C        -0.45179340205796   -0.48962069618328    6.77325146320692
C        -0.56404398497199   -1.87965352058606    7.29513740248160
C         0.64953698189086   -2.29949180342673    8.11690402605536
C         0.51692477172367   -3.73397207754510    8.62234199744869
C         1.72769629995867   -4.16403120177182    9.44671702326375
C         1.60356726206986   -5.60304626612836    9.94114679497264
C         2.81418836153111   -6.03229986575537   10.76618182135891
C         2.69695416532702   -7.47486516944872   11.25157927105856
C         3.90619078694719   -7.90368737454362   12.07906163651792
C         3.78517224250369   -9.34553104284170   12.55659899868221
H        -1.22764598018877    5.60463005685434    2.71876471011739
H        -3.13026116139318    3.56704270452255    3.58213721737888
H        -2.32129060650027    7.47348604269649    1.37902490541202
H        -3.10927949406538    8.06087080974180    2.84268234626387
H        -4.25420237551190    5.86703674967770    3.10977935050812
H        -1.99676648115657    6.20685667802932    4.16729498996655
H        -4.50209812028807   11.23151118554310   -1.24311347805470
H        -3.40780101029187    9.35221747367924    0.06409274491449
H         1.83095122617384    5.61237192160082    5.42242246274773
H        -5.33603613069139    7.72028697768285    1.77511697878078
H        -4.20392736997107    9.92341297197586    1.52934393830551
H        -3.46839244985458    5.27735836852796    1.64491136022989
H         2.56316203678629    4.25754085368531    6.21860519147234
H        -4.54268597782041    7.14753507031200    0.30926778414785
H        -5.30718906516615   11.78967573459674    0.22251771184260
H        -6.42555613656460    9.57781754721283    0.45257835368535
H        -6.71442740970195   10.88991616381058   -2.32982180542869
H        -5.62474643330335    9.01859155671642   -1.01448411245914
H        -7.52129967263109   11.44352633258270   -0.86348125567847
H        -7.36849098608667   13.27624646966141   -2.53224828249194
H        -5.61144005330724   13.11825530790368   -2.56357919929526
H        -6.42041660711628   13.67169572158125   -1.09775060772265
S         0.70734638056476    2.29150440413918    6.04288530482880
N         1.74523367638394    4.70485287682003    5.84518525725763
N        -0.29643423344309    4.44274499455376    4.84191784943145
N        -1.34369934885076    3.61455717296596    4.58715425191723
C         0.68874429422132    3.93385511865621    5.51463441038874
C        -2.25336266164278    4.14193273990858    3.83942155829348
C        -2.14112195735009    5.53205324780577    3.31766865912962
C        -3.35486544446988    5.95196682588479    2.49620281404389
C        -3.22256458363325    7.38642172450487    1.99057779879393
C        -4.43377072527625    7.81593826094876    1.16656116104466
C        -4.31071337440992    9.25489120793021    0.67168406326167
C        -5.52208257328071    9.68280105950429   -0.15296071512026
C        -5.40656382359298   11.12520457149946   -0.63924024977491
C        -6.61673158747276   11.55206966081442   -1.46639004673859
C        -6.49774064022610   12.99369866038850   -1.94507056715493

