95
CSD_code = NINDEU | q = 0 | S = 0 | Stoichiometry = C30H56N6NiS2 | MND = 4
H         1.15772184505934   -1.69812276949396    7.47433047349027
H         1.45759568972706    0.52326113977462    5.56186326783881
H         2.77047121867318    0.60098851988848    6.71374188836140
H         2.07252662564855   -1.85764430775811    5.02599679850240
H         3.40716418453706   -1.76067088456753    6.17527053832859
H         3.08317222515149   -0.01217039759798    3.69526310862028
H         4.42165093235332    0.08072082926485    4.83900244151861
H         3.70106323011299   -2.37309104178145    3.17568674661403
H         5.05261053458812   -2.26207902894600    4.30141004159248
H         4.68113642195641   -0.53056592540626    1.81696197035891
H         6.03738260860498   -0.42535543059872    2.93788320406288
H         5.30057074176879   -2.89143508179823    1.29956806644945
H         6.66941232189692   -2.76904690303385    2.40311642698684
H         6.25145849676292   -1.05337064850285   -0.08510464933184
H         7.62288483846408   -0.93299379717909    1.01552148637836
H         8.25624919333751   -3.28094018808661    0.48694453888957
H        -1.16291728846065    4.07409839474063    8.28995971374876
H         0.79226672606307    5.17629930497382    7.40385243368332
H         1.47407618077472    3.57081231073580    7.06806687109336
H         0.63882238454751    4.75081249694544    4.97301553452449
H        -1.45675624313999    3.73745932312949    4.24644763176636
H        -1.76853152059717    3.12272163078783    5.93798790202580
H         6.87889170375114   -3.40857177745765   -0.60582813185149
C        -0.38439487495784    2.22887925230050    8.22554455819393
C         1.16558938433464   -0.63189285662768    7.30264976930901
C         2.05990616166452   -0.08647981600706    6.24347359695165
C         2.79859977083938   -1.17932256846614    5.47934633327604
C         3.69310911777022   -0.59716725415998    4.38791794079821
C         4.42993628771476   -1.68641434676046    3.61264397263640
C         5.30473512649041   -1.10925177489761    2.50272289973920
C         6.03356163943031   -2.19942641687183    1.72120835296568
C         6.88855596444036   -1.62425685316500    0.59485347041373
C         7.61339653156291   -2.71407264783817   -0.19080879350770
C         8.45946961914396   -2.14056007760675   -1.32489172000389
H         7.81648085451517   -1.57268468911558   -2.00148365721946
H         9.19552731130944   -1.44770817961996   -0.91037854680293
C         9.17711690323160   -3.23346813390109   -2.10732116607719
H         9.77111338240527   -2.80377370680966   -2.91069187948693
H         8.45865824394934   -3.92439157558384   -2.54329719199855
H         9.83967190299602   -3.79746177979147   -1.45423285907541
C         0.55257081452019    4.16121970235616    7.06880841536765
C         0.00626588062975    4.21517681729070    5.66840925474812
C        -1.12574699571515    3.66966004645209    5.26819641156574
N        -0.33270743577780    3.56104408666782    8.03388188459782
N         0.53734202979273    1.45315898868020    7.74195275443316
N         0.41427187471609    0.13106694866810    8.02157033585985
S        -1.71704094377938    1.62314081799267    9.14892846227204
Ni       -0.87105019619263   -0.44824579667197    9.31557028150169
H        -2.89777464950245    0.80136891791632   11.16042042598014
H        -3.19716552789362   -1.42379656705668   13.06875860123644
H        -4.51024227981391   -1.49986656212574   11.91715194601664
H        -3.81500720252114    0.95468346367259   13.61188585367927
H        -5.14995527909125    0.85922692267709   12.46280678011088
H        -4.82113791092385   -0.89790168026350   14.93602812788488
H        -6.15976634383655   -0.98958486430584   13.79244498592613
H        -5.44567064895639    1.45893700705976   15.46624046184908
H        -6.79746439384056    1.34876619463465   14.34069173742846
H        -6.41879202085550   -0.39303659499422   16.81693491592616
H        -7.77500677566108   -0.49819401336659   15.69598556206708
H        -7.04714835892930    1.96308333474969   17.34552988257812
H        -8.41589774710341    1.84051513769553   16.24185187653776
H        -7.99045415809319    0.11519891388244   18.72222824146952
H        -9.36154784684023   -0.00598879122102   17.62126837847997
H       -10.00415078145065    2.33725252834729   18.15982676407976
H        -0.58183901864546   -4.97138480503067   10.33492645318558
H        -2.54141924133539   -6.07193940881967   11.21870977845485
H        -3.21359809508034   -4.46508526815864   11.56730094504437
H        -2.37181535263119   -5.66364507510772   13.65074307823460
H        -0.26894853693174   -4.66202794229970   14.37258004036281
H         0.03530028083493   -4.03641979239760   12.68367555665518
H        -8.62733430302368    2.46555432921125   19.25320710728978
C        -1.35872554175892   -3.12583185414612   10.40371539293294
C        -2.90632131117702   -0.26515339157027   11.33030904982657
C        -3.80012084811647   -0.81283707854240   12.38877951308448
C        -4.54002939961888    0.27663862272013   13.15647172355489
C        -5.43287673102872   -0.31159966327288   14.24606061807496
C        -6.17257481418935    0.77196836162266   15.02648777520855
C        -7.04484313409695    0.18648367078536   16.13410395804974
C        -7.77759072313347    1.27020863592031   16.92089252086114
C        -8.62997491194011    0.68643227258393   18.04483721428784
C        -9.35912016469261    1.76998699724749   18.83517726011953
C       -10.20304737949309    1.18848111937654   19.96679250018480
H        -9.55798255053621    0.62033584769849   20.64117568143281
H       -10.93642221351456    0.49451261968641   19.54939627104250
C       -10.92497589923719    2.27551576054070   20.75347791798672
H       -11.51746676420032    1.84039342433665   21.55503026790216
H       -10.20920077951767    2.96739051063565   21.19234732923186
H       -11.58955383563070    2.83963862844147   20.10255921376765
C        -2.29508183462751   -5.05998816987018   11.55855125840972
C        -1.74163633958942   -5.12486273323007   12.95563523652831
C        -0.60583531838490   -4.58537567164357   13.35336858083267
N        -1.41153876345329   -4.45832616899672   10.59283316811777
N        -2.27992936160532   -2.35000100953745   10.88806566832282
N        -2.15608447063133   -1.02764331343616   10.60971254411186
S        -0.02559212431240   -2.51986675659926    9.48129065154264

