94
CSD_code = NINFAR | q = 1 | S = 0 | Stoichiometry = C32H55CoN3O3(1+) | MND = 6
Co       10.19076775115691    6.86447542198961   13.16214111627837
N        11.09876033169887    5.47686573824599   12.09782166998557
N         8.68973520212162    6.81540185549884   11.63366296236577
N        11.15697356456812    8.32092517235481   11.91814755375427
O         9.32577005286518    5.50648731439054   14.09426067617674
C        10.04109006817673    4.75338672388071   11.38130841627195
C         9.09817183130374    5.73763040971467   10.70000306803468
C         8.83705482810998    8.14184772139574   11.00960682702402
C        10.29332677057231    8.53358614547739   10.74228415099272
C        12.36092396757818    7.54726804352009   11.56526302369927
C        12.03085981731975    6.11711501146427   11.14853979324391
C        11.85119464581880    4.53191209192248   12.93591350441804
C        11.13017305428860    3.94877919488521   14.13055904357219
C         9.95035095622625    4.49259689528902   14.66988384663061
C         9.40061125559103    3.86338369788678   15.82266288291093
C        10.07145255045446    2.79005081300677   16.38064396418040
C        11.26564075264542    2.28213213041381   15.88275788528173
C        11.76845254050540    2.88097083111889   14.74052374908772
C         8.05724549453348    4.31229545027962   16.38755086158503
C         8.14935507060048    5.77538657720237   16.83482124451895
C         7.59794126279960    3.48562833471255   17.59317792842036
C         6.99492984619181    4.16318366717208   15.29045761226339
C        12.01115911945724    1.12417460018090   16.52534892028697
C        11.30099574570395    0.57971384794019   17.76709380126048
C        12.13815539744341   -0.01786603809071   15.50740200734104
C        13.40852590571499    1.60336199505050   16.94447238640442
C         7.26070829631899    6.56585235999225   12.00773099650254
C         6.76365165892487    7.36489892702421   13.20375048639903
C         6.28311411085908    6.79019723885285   10.84618070229481
C        11.58041603861304    9.60701057433087   12.55197966461421
C        12.66966415606863   10.35056808451832   11.76915924031081
C        10.41949159177767   10.57438296611056   12.78483604779304
O        11.61952398175954    6.84372206434775   14.35737112357028
O         9.33096118948194    8.17195842492638   14.18436218252308
C        12.78377647925847    6.76354200601476   16.40420805848383
C        11.63639517334843    7.24984700105337   15.56102015917396
C        10.68723751484399    8.09666018634013   16.11703876278517
C         9.58734417159956    8.52693015030901   15.37235792967092
C         8.63696077366033    9.50464386489603   16.01318743938038
H         9.48665761966988    4.16678928575746   12.11480562696170
H        10.47276813606477    4.06490627359607   10.64292124684328
H         8.23205706647068    5.17499319835568   10.34555657269845
H         9.56785942675040    6.17466105030532    9.81763128978560
H         8.39747858720067    8.86358398228546   11.69531466901895
H         8.29468688889936    8.18817545237348   10.05755208874296
H        10.68493204917236    7.96903932486715    9.89422570481914
H        10.30244841024899    9.58265030294980   10.43994137243556
H        12.99749626107343    7.52088760693641   12.45141460938935
H        12.91581675553244    8.02204355720447   10.74758922578819
H        11.59769556158875    6.10569167268320   10.14823799949039
H        12.96545516153320    5.55040640028674   11.08933090558679
H        12.74052925410887    5.05259063380181   13.30295492379848
H        12.18482960660405    3.69881330316122   12.30136236202357
H         9.64690376413104    2.32718247990763   17.25092539568091
H        12.68585721479974    2.52167998180574   14.29770152062104
H         8.89398496263479    5.88201937021619   17.62114214180739
H         7.18810802806915    6.11183838148740   17.21673969186418
H         8.43394636691814    6.40420915607328   15.99989476512606
H         7.47217422173012    2.43762928654802   17.33319989605976
H         6.63379618232188    3.86148504680220   17.92891921349641
H         8.29423646697511    3.57099528525201   18.42394981127275
H         6.90490878667313    3.11954365175861   14.99591754073080
H         7.27359074515020    4.75101379972893   14.42312398196525
H         6.02842089597186    4.50591934166516   15.65207147664457
H        10.31440358711161    0.19654265418651   17.51817613369026
H        11.20618300397411    1.34502141109670   18.53375006298711
H        11.88180753414729   -0.23978810682597   18.18402840792235
H        11.15259645991204   -0.33788408891747   15.17654052859894
H        12.64166393819090   -0.86772298723655   15.96155989492317
H        12.70966441517334    0.28743739572707   14.63526844681209
H        13.95905122514585    0.78807986451666   17.40732336180433
H        13.32806151095206    2.41553128617270   17.66406913213018
H        13.98008808849682    1.95724343691566   16.09075055662676
H         7.23509651591963    5.51132784196475   12.29715861126323
H         7.36442214329058    7.15227751814528   14.07786670882642
H         5.74008153046257    7.06431354409602   13.41212421272743
H         6.76720004686842    8.43397652243891   13.01209227609537
H         5.34189318582841    6.30565332336165   11.09119102516030
H         6.62614013465030    6.37648218818267    9.90122595141555
H         6.07992579220511    7.84897257596349   10.70646219960064
H        11.98980285312719    9.32590854713736   13.52805959036594
H        12.79050296263714   11.33982187487597   12.20180815940306
H        12.39318383624835   10.47829135373214   10.72468796241302
H        13.63431387276732    9.85433640459485   11.82064958009248
H        10.15241791871149   11.11189925657272   11.87829276760052
H        10.72767153739346   11.31161763923845   13.52166010130432
H         9.54485079416881   10.06355155189758   13.16699403512492
H        12.51077702253435    5.78923189050689   16.80974639636026
H        12.98682410171961    7.44336322139365   17.22467167368664
H        13.67572198882759    6.63290693870742   15.79658979112306
H        10.78861175851815    8.41763573768127   17.13845770186673
H         9.16108601837274   10.42704774518213   16.25351788097826
H         8.25385232468545    9.08405707069410   16.93971060274581
H         7.80720255770810    9.72131106658541   15.34665052423050

