92
CSD_code = NINFEV | q = 0 | S = 0 | Stoichiometry = C33H48Cl4CoN3O3 | MND = 6
Co        6.70825821166232    5.71830041161021    6.06929072160023
N         7.63298890734503    6.21156131314241    4.40679011915490
N         4.96120354927776    6.46954303176327    5.14938852367109
N         7.07331598298980    7.75195099302315    6.68828534805059
O         6.26507607048064    4.00357635093103    5.53347926438035
C         6.68805909178604    6.66716642383717    3.37392946043059
C         5.26365037678328    6.24909402434105    3.72410509725021
C         4.89411765720733    7.90736793501341    5.45244542521610
C         5.69769845546769    8.27373470785532    6.69929367656042
C         7.88116456803996    8.36300369886900    5.61956395917723
C         8.56871899538855    7.28183142619996    4.78278713286345
C         8.40480248368177    5.06283609707914    3.89935227994270
C         7.56424578021103    3.87000971823725    3.53355962902092
C         6.66590610888410    3.33890042595349    4.47816904309334
C         6.15389907683944    2.03231556767584    4.23742076984140
C         6.40992086801334    1.44651157214733    3.01358717663282
C         7.18929523827661    2.03027058550206    2.01590920370924
C         7.80132702528209    3.22985881417758    2.32608372400768
C         5.43043889654629    1.27850570028882    5.34902985352561
C         4.98846023014499   -0.12537291191861    4.92079690141029
C         6.41047383424908    1.13172195045960    6.52249983605839
C         4.18705114981691    2.03726160270187    5.82788830837298
C         7.37712121953169    1.30964861301716    0.69000329763138
C         6.00517216463918    1.07419214754662    0.04239104162299
C         8.06862210248263   -0.03761966602211    0.93995074340724
C         8.23451330217850    2.10966462269400   -0.29498328385927
C         3.67942004644985    5.76878449514838    5.46493863901989
C         2.54091430971392    6.10814519938426    4.49313103726543
C         3.19724802457214    6.00196490143697    6.89272096274259
C         7.66803820063998    7.94741211479736    8.04298225840024
C         9.14358414437977    7.55852614798808    8.11669197422215
C         7.51689585470515    9.37789361453209    8.57862367423769
O         8.27157859035151    5.01915651925699    6.77657012779892
O         5.94504952278456    5.33863790783722    7.72739508942368
C         8.00701361539587    4.31439518798065    7.86042874329834
C         6.70586810563061    4.49265866387351    8.38825243099558
C         6.32873572737151    3.79528308662699    9.52737067165819
C         7.23198639112057    2.93362242963018   10.15203075183103
C         8.50867219787060    2.76569516062905    9.63657616945782
C         8.89677032718733    3.45533373534023    8.48642024560585
Cl        4.74585891749102    4.01907844258380   10.16827015071303
Cl        6.75513714456127    2.07406065891279   11.56532568585442
Cl        9.61923911018388    1.70244805128933   10.41064945208683
Cl       10.48359985645687    3.26600774972848    7.84195642137424
H         6.94895190556943    6.22974762008636    2.40443613958411
H         6.75368626043928    7.75254930593753    3.26955679389474
H         4.56793997403053    6.80215225763779    3.08036055092091
H         5.15262069433484    5.18190468816893    3.52551834266686
H         3.86096296666204    8.21926906548289    5.62546155426709
H         5.25043247481811    8.48056411440162    4.59345622687916
H         5.69110009619256    9.36828900499681    6.79012700144967
H         5.20545937189121    7.83902620086896    7.56927678407369
H         7.24517690019491    8.98642243242450    4.98649210211692
H         8.65028526132377    9.01911161426830    6.03281496249559
H         9.02407451088229    7.72694432491285    3.88684351578277
H         9.35581868047758    6.82452892428459    5.38115811593733
H         8.99558597301412    5.37929615741567    3.02856960528927
H         9.09244554225996    4.75911961483137    4.69439065529593
H         5.99156188080913    0.47508619973405    2.81623901589141
H         8.49480451244501    3.69091508680002    1.63933434987361
H         4.26777511678487   -0.08257788979723    4.10635203772460
H         4.51101714760571   -0.61888033190148    5.76487950533969
H         5.83838318583543   -0.73316978604732    4.61975459083812
H         6.72733464415876    2.10809299350992    6.87625732180645
H         7.29080410979113    0.57149867832870    6.21407492782304
H         5.93495774640313    0.60776638313910    7.34865952329045
H         3.62812551285487    1.42531645534858    6.53281204501726
H         3.53640366227665    2.27627723382779    4.98728525279266
H         4.48532178811758    2.94960416217498    6.33297438998598
H         6.12126071586281    0.56270092303482   -0.91113026643452
H         5.50418457728982    2.02418141063522   -0.13385024828847
H         5.36787142228285    0.46684941503253    0.67847631867297
H         9.02848293023250    0.11921299901277    1.42711600834056
H         8.23769329975203   -0.55623543041842   -0.00180664884149
H         7.46526075732015   -0.67699218645157    1.57785587975662
H         9.24177115355628    2.25078776113350    0.08954533719092
H         7.79063538433471    3.08187932162205   -0.49889530796567
H         8.30837445625892    1.56851412606703   -1.23631892484546
H         3.91360177434966    4.70768178702282    5.36743989190227
H         1.62047292856875    5.68556996962442    4.88628868187462
H         2.69635942353762    5.68383755746872    3.50503309488219
H         2.39407765197415    7.18242600684432    4.39487817198434
H         2.38995667060186    5.30463705706180    7.10018721971805
H         2.81424813743422    7.00892921423845    7.04363733106329
H         3.99569084572805    5.79937515246660    7.59674171289711
H         7.11020093001652    7.27121464518611    8.69758968052976
H         9.42306105897444    7.46114841512525    9.16253296503516
H         9.78956392954888    8.31127587199082    7.66943808545048
H         9.31974087561261    6.60246259467013    7.63874255056548
H         8.12132409586899    9.47469132384118    9.47625386075790
H         6.49179584977579    9.61398583534207    8.84945243852308
H         7.87092977790582   10.11427249550843    7.85895511744453

