44
CSD_code = NINHUO | q = 0 | S = 0 | Stoichiometry = C17H17HgN7S2 | MND = 5
C         5.57523598955397   -2.01491902787923    6.60960679916586
C         5.65274563799916   -1.42569181216819    5.35025906795654
H         6.17226906397515   -0.49953805007881    5.19108640035191
C         5.04997355695168   -2.08202542141435    4.29212023567783
H         5.06271707635781   -1.63782806616112    3.30846672011908
C         4.43105676665998   -3.30393007044425    4.48623508048718
H         3.92448562018846   -3.79213178533779    3.67505435375952
C         4.47555591957473   -3.85955567190428    5.76231566138697
C         3.71268391502086   -6.19693097374931    5.28581329184568
C         3.22320872946884   -7.17928834432843    6.11181978149504
H         2.94054803542504   -8.17308579229720    5.83082577691393
C         3.19538413567891   -6.62769221259787    7.40494617607740
C         6.32365163302394   -0.11915877968217    8.06496960340976
C         6.78317873359136   -0.09362605444800    9.35920662444720
H         7.06039530456137    0.77171209229044    9.92563331776207
C         6.78885717165520   -1.42862867940479    9.80064796994958
C         6.02271073501715    1.03803852416365    7.18840477471875
H         6.78852557264596    1.18118790142311    6.42602606160827
H         5.98977578044895    1.93521662977345    7.80140457507434
H         5.05368444819759    0.90498757406598    6.71160587992891
C         7.18477597687640   -1.96700650854935   11.12515188134205
H         6.54180509930536   -1.55511668129069   11.90215170638500
H         8.21393316687892   -1.69545935564343   11.35456563822580
H         7.09350122295994   -3.05539200397524   11.12592392233152
C         2.76135198660777   -7.26008891789709    8.67485495044661
H         2.86811418303915   -6.55065737052619    9.49841140775861
H         3.36939897551801   -8.14000796187661    8.88069272379172
H         1.72045235681036   -7.57265518294750    8.60762360559906
C         4.04555296957006   -6.30828614931267    3.84536038445300
H         4.07334191146661   -7.36177788535377    3.57859669409056
H         5.02401727538413   -5.87311383042875    3.65237358838947
H         3.29920625196492   -5.82312616641800    3.21627553678320
C         6.77086754162685   -5.80881823932370    7.32659505135414
C         3.23365146662580   -1.88211702148524    9.07167430003025
Hg        4.99085195370086   -4.22897405631034    9.04185145901264
N         5.01729753742144   -3.20841011945674    6.78681599580147
N         6.09478503961919   -1.43124017585562    7.76048882759796
N         3.93684723410342   -5.10368861958432    6.07395753895219
N         3.63865325349119   -5.38446351266821    7.36268601801010
N         6.36149204995252   -2.21500724071663    8.82963096398058
N         6.79645711331165   -5.74547056742055    6.17562763001693
N         3.23151764462623   -1.05670955769720    8.26661502361007
S         3.22855452246902   -3.03095851709892   10.25654902738852
S         6.74262944065914   -5.94496633797768    8.97097797246248

