70
CSD_code = NINJUP | q = 0 | S = 0 | Stoichiometry = C28H33ClN2O4PRh | MND = 6
Rh       -0.33071138021038    4.11212075110105    2.89777814483556
Cl        1.88069634108641    4.07036779370407    3.43931682174093
P         0.41108079033922    5.43878879947983    1.20917952900677
C        -0.58905105426614    2.24489094401898    3.93745690028007
C        -0.98571223627068    3.27259673781200    4.77659137259497
C        -2.43586169980266    3.57592307172068    5.08954921029328
C        -3.04572012482896    4.61638827926842    4.12895416244779
C        -2.37262596765873    4.64673661689715    2.77567667702571
C        -2.15942771275379    3.51334481269445    1.98962679760471
C        -2.61965982054444    2.12942026810193    2.40123081758320
C        -1.52803776262479    1.35155876442793    3.16047742784605
C        -0.76056508715098    6.44597195050001    0.23530945522609
C        -1.02664379003715    7.77171829854912    0.55429279630509
C        -1.97269159471602    8.48517191554820   -0.15989767444850
C        -2.66738948560509    7.88058007632903   -1.19385655413335
C        -2.41425642050402    6.55582345396717   -1.51166925207338
C        -1.47146161539291    5.84161736351124   -0.79752318811119
C         1.29456321988168    4.55823164669672   -0.10096659524177
C         1.53934716073502    3.19512239068262    0.02976968278424
C         2.17706952450558    2.50576279998614   -0.98059544434268
C         2.54880878034184    3.22107804256512   -2.12006808925140
C         1.70125214832423    5.17202658421656   -1.29227904935936
C         3.53127750319832    3.33170148685068   -4.24500761766542
C         1.83692186806866    7.06724973134300   -2.66806982804311
C         1.58396469809618    6.67028476333179    1.83132486656868
C         2.81859812791859    7.02025843302912    1.30509297688418
C         3.62903984030930    7.90559416560189    1.98971237920861
C         3.18232111890675    8.39611917718423    3.21544029542023
C         1.25412877278896    7.19872542132261    3.08812586042737
C         3.49065834640890    9.68448788017720    5.14687695316164
C        -0.14945418563337    7.24609442724301    4.95794779703855
N         2.30939816125356    4.51968665798317   -2.26937648853065
N         2.01957705192692    8.04444092401017    3.75345149180627
O         3.16756794852550    2.56646818803210   -3.11293298029858
O         1.45438348786862    6.48167371936673   -1.44131110770186
O         3.96405311456209    9.25765324406706    3.88449364404888
O         0.08657905163115    6.81579107583191    3.62939339710572
H         0.40141949332925    1.81775054852958    4.09174956429472
H        -0.26887403282372    3.61165147324071    5.52520183878315
H        -3.00514416988121    2.64540117882150    5.05006813855363
H        -2.50755243868233    3.95301947577045    6.11205661736330
H        -4.11612751198204    4.42058523488738    3.99478834018216
H        -2.95890411380176    5.61102709347558    4.57184200478760
H        -2.47563056424899    5.60447191957932    2.26399170989463
H        -2.08988450489059    3.66065011135046    0.91226241774527
H        -2.89620721098886    1.56480698508615    1.50839548243650
H        -3.51786078657442    2.22149708062512    3.01404619576765
H        -1.98664942651964    0.62987672452811    3.84578864265886
H        -0.93388018894073    0.78133048879146    2.44212087338121
H        -0.48448959034095    8.24681229823280    1.35916701200491
H        -2.16826947131990    9.51831994162881    0.08979507159085
H        -3.40416775921482    8.43968412944724   -1.75188916586894
H        -2.95416038909779    6.08060550129266   -2.31829828492274
H        -1.26569186667667    4.80962135988630   -1.05152755946511
H         1.22408140455112    2.69649878876171    0.94130017554017
H         2.39322334741346    1.45300490663026   -0.91986503305589
H         3.15277892200920    6.59389257317258    0.37305657612701
H         4.59490894612640    8.20463644403402    1.61961578137794
H         4.01509617291533    2.63936703579561   -4.93052783962627
H         2.64895666012612    3.77497668063818   -4.71224399033989
H         4.21982645049826    4.13223843741625   -3.96556973709604
H         1.55220387932457    8.11494708593021   -2.59900209507237
H         2.91436582952528    6.97450907313099   -2.82329115256650
H         1.31900843127314    6.58792357868628   -3.50185258068442
H         4.25818092510478   10.34396424125986    5.54643124787584
H         2.54484086896365   10.22167765581802    5.04399443098163
H         3.33920762772906    8.83050112324992    5.81040359097544
H        -1.10947633370177    6.82472895093827    5.24699689469164
H         0.63894375307562    6.88117248919751    5.61950363406600
H        -0.17838947096693    8.33747873299089    5.00637560961505

