61
CSD_code = NINKAX | q = 0 | S = 0 | Stoichiometry = C24H34Cl2Zr | MND = 12
Zr       -0.98168876638036    1.01282438607760    3.34783085010497
Cl       -1.14990690362696   -0.71580825748757    1.76341077169684
C         1.18766223825679    1.84771152030557    4.19153272110219
C         1.47598966153601    0.87517837880053    3.19597264456088
H         2.01367088283920   -0.05387097498520    3.34133918037472
C         1.05682609727305    1.38006846389615    1.94353899290407
H         1.23271398662354    0.91006128713516    0.98325751219002
C         0.48481456064772    2.65228085263866    2.15294572187738
H         0.19966922771209    3.35090628600563    1.37717596935335
C         0.56910339594845    2.94390083402743    3.53532268503762
H         0.35012957800890    3.90635941114136    3.98005277774642
C         1.62967952400412    1.85431391132908    5.64185244268130
C         2.24967921221274    0.51279926652974    6.04190595437666
H         1.52031541933909   -0.28609258057086    5.92926159682645
H         2.56335037854413    0.54688618460612    7.08299137264295
H         3.11887753484401    0.28266265313074    5.43237795350645
C         0.41309141941705    2.11930043791000    6.54589152224129
H        -0.00335312362527    3.10787300914482    6.35689079437310
H         0.71259764907905    2.07901680432813    7.59153640539132
H        -0.35383349802408    1.35830925035042    6.37723074085407
C         2.64842747791411    2.99883427788287    5.84850864703861
H         2.14327559914574    3.95528429800169    5.69588915027883
H         3.00057000408162    2.97322544656627    6.88191441619025
C         3.85180670352239    2.94204720545473    4.90131007505711
H         4.44850622672156    2.05387080571045    5.12015723422449
H         3.50321769420876    2.87907614219473    3.86938541533330
C         4.70908521434505    4.15491326757601    5.07293902616203
H         5.14846292094793    4.27760776649983    6.05516790799646
C         4.92866828036660    5.05217071287789    4.13073824501615
H         4.50072589848044    4.95192094894115    3.14635897029517
H         5.54823933241575    5.91760840438087    4.29509151189161
Cl       -0.81324968591849   -0.71633510913642    4.93231231937986
C        -3.15103431809131    1.84770310161039    2.50431123889632
C        -3.43935085674383    0.87518301349763    3.49988868110249
H        -3.97700700879170   -0.05388090200865    3.35453236808442
C        -3.02014546925668    1.38007100963695    4.75231035864130
H        -3.19601182400886    0.91007344647854    5.71260372605032
C        -2.44816198185672    2.65229345077504    4.54287903674008
H        -2.16302409215133    3.35093578902611    5.31864114162831
C        -2.53247346474024    2.94389918136258    3.16049927253470
H        -2.31348639560601    3.90634831929377    2.71575210126562
C        -3.59303280844046    1.85426012358361    1.05398624891840
C        -4.21307960355434    0.51275227311224    0.65398396753472
H        -3.48374472371714   -0.28615629541538    0.76665403369485
H        -4.52673652327184    0.54681270469437   -0.38710484139654
H        -5.08228543403383    0.28265577189731    1.26351606026644
C        -2.37643716500329    2.11918696133632    0.14994054332666
H        -1.95994334004928    3.10774370413046    0.33890954770722
H        -2.67592923729159    2.07886430326206   -0.89570572814472
H        -1.60955219486598    1.35817236065337    0.31863762914250
C        -4.61174609430402    2.99880277676141    0.84731584128279
H        -4.10656978987945    3.95524314882887    0.99992505349111
H        -4.96388760550197    2.97318539714454   -0.18609062720942
C        -5.81511522784364    2.94202757200055    1.79453166475372
H        -6.41185247469381    2.05387720551196    1.57566681810427
H        -5.46650451584736    2.87901331399154    2.82644948485490
C        -6.67234744801177    4.15493423843671    1.62297115938886
H        -7.11182403608031    4.27764139263938    0.64077988723299
C        -6.89182885661593    5.05218087364224    2.56521195368888
H        -6.46386262886958    4.95186110388871    3.54956712930467
H        -7.51144902170594    5.91760936896689    2.40094472037364

