53
CSD_code = NINNOO | q = 0 | S = 0 | Stoichiometry = C25H23N3NiO | MND = 4
Ni        3.47465994023562    0.91981165841623   10.64655629290291
N         5.03627312681117    1.88450486082378   10.02839669800470
N         3.84057561045619    1.69297459347837    8.08490620819304
N         2.90622219677470    1.06403227060324    8.84771743294294
O         4.12495440648074    0.74474937646807   12.37567679404715
C         4.96017638940881    2.23838492304346    8.73795482952531
C         5.87909849209640    3.06883937951047    8.13021354449156
H         5.78462881565499    3.39194065041593    7.11271982729685
C         6.95739891355690    3.51983983773382    8.90339699161336
H         7.69554180900931    4.16525483128035    8.45082560808058
C         7.06108285818201    3.14528488322647   10.21051695783827
H         7.88358060273412    3.47607984070876   10.82458203982137
C         6.06492943855018    2.31997835206589   10.79700964851257
C         6.15543426169099    1.96684477435096   12.15490383706983
H         7.00442932058466    2.35344312085718   12.69447963238475
C         5.21432774595116    1.21061427380295   12.84284478007572
C         5.44084243374500    0.92737594256475   14.28747655144578
C         4.32360981073717    0.73946279663298   15.09955632876463
H         3.34379655948794    0.79968437921150   14.64954936098893
C         4.47091870674682    0.48253264474328   16.44874991189536
H         3.59723001930963    0.34656840571782   17.06957118061279
C         5.73696309156932    0.39665294353445   17.00454917528971
H         5.85509007249813    0.19639884271819   18.05969223018992
C         6.85303904911218    0.55820577494121   16.20043382661423
H         7.84216512793869    0.47496927130237   16.62799079987722
C         6.70932788660873    0.82098074650099   14.85018168524917
H         7.58912191977889    0.92019892550053   14.23204302051155
C         4.25989379325901    2.17531993981548    5.61737832838614
H         5.29067202170375    1.82456855989023    5.64105282962282
H         4.25435047269820    3.26512527827652    5.59094868572781
H         3.79345126323533    1.81636831569708    4.70293903328866
C         3.48563624220000    1.65450907963155    6.77247965327211
C         2.27918752517410    0.99549947831275    6.71626205161414
H         1.70776139543934    0.78707560667445    5.83501518407009
C         1.94750990138574    0.64417574847227    8.03133880364869
C         0.72314912705916   -0.07812330324537    8.45555975088297
H         0.16673631689381    0.50947291679557    9.18217636905954
H         0.98187073948921   -1.01949843696143    8.93405088547606
H         0.09689327369784   -0.27234629233295    7.58880851767570
C         1.90263346100702    0.12109740218140   11.30540917199937
C         1.81717632346709   -1.26680580210924   11.46024971370738
C         0.68310655403072   -1.83126904788538   12.03059608008858
H         0.62671701793732   -2.90601528062526   12.14282603782145
C        -0.36281933198220   -1.03585774429181   12.46168354833975
H        -1.23830873201616   -1.48628382486034   12.90740864838186
C        -0.27851757348664    0.33845432657020   12.32955319967579
H        -1.08755664873895    0.96776386538624   12.67418617242367
C         0.84850108610281    0.91217820255288   11.75941351818264
H         0.89844627516034    1.99286893831777   11.67025216950392
C         2.95555761239096   -2.14219869882136   11.00735304372251
H         3.39770912433355   -2.65817446401934   11.85803425588872
H         3.73008433796274   -1.51767086587077   10.53980497912273
H         2.61943981587331   -2.89134219770656   10.29052417419604

