31
CSD_code = NINXEQ | q = 1 | S = 0 | Stoichiometry = C5H16CoN6O2S(1+) | MND = 6
Co        2.89298766690914    9.15720030200835    4.98633712235331
S         2.95255684723510   10.14580155485197    0.61882316400610
O         3.61585814000316    7.29671745537168    6.62855730444380
O         1.98805591919987    8.53148050882425    7.31859279832031
N         2.83434964337401    8.21765078244888    6.50651164294037
N         2.95780855910077   10.22344759035272    3.37606914438897
N         3.27827454442709    7.50562163775847    3.90676762242740
H         3.22926119065463    6.67625709209802    4.50669989748161
H         2.65964278556430    7.34265708918725    3.11101614929182
N         4.89992820806559    9.31579891864089    5.06526002063393
H         5.11890690199649   10.07759333490699    4.41770603411970
H         5.33228574044328    9.54735983508316    5.96076706593456
N         2.53381776990760   10.89285065417933    5.94248942815261
H         3.01351339487988   11.06765104007988    6.82638166195130
H         2.84077833606853   11.60754139599870    5.27806903890857
N         0.89247132212917    9.08276474672141    4.80869454762678
H         0.54252272293529    8.70237213694002    3.92839268497538
H         0.48137176454346    8.52663125814811    5.56449660294284
C         2.94554377031004   10.17227299306754    2.19066470412754
C         4.66302724811518    7.59165117974698    3.39658706757741
H         4.68506875821136    8.30625430862224    2.57123360469997
H         5.01222881420053    6.62181852476618    3.03250609664886
C         5.52966409552621    8.08435194016277    4.54509587140945
H         6.55377396463307    8.27011152156588    4.21178292211582
H         5.54473390654020    7.33899866621854    5.34314357975084
C         1.08295480799955   11.06841564637565    6.15549079362594
H         0.82127153067347   12.12302904827246    6.27192295758819
H         0.79755150431886   10.52903981578535    7.06116458832521
C         0.38153748188260   10.46167197237574    4.95047275965323
H        -0.70397331237007   10.47385146089498    5.07969469653776
H         0.64172597251907   11.01683558854681    4.04700842704232

