131
CSD_code = NIPCOH | q = 0 | S = 0 | Stoichiometry = C42H84Cl2P2Pt | MND = 4
Pt        6.11415236030848   12.15952273247557   12.90703812593288
P         5.75398582092358   11.13791037061678   14.93734393044467
P         5.47639250047625   10.79318365524642   11.17479059400407
Cl        6.76336864330407   13.84438109183047   14.34018592407495
Cl        6.62550440682009   13.49162994269529   11.09883337077189
C         7.32507785905470   11.03390749067315   15.88368323570415
H         7.55881646809709   12.04783579005581   16.21563371526729
H         7.20131366227396   10.39513774271806   16.76204172874914
C         8.44571338615655   10.52178752844301   14.98326453933388
H         8.41998416666193   11.09704369021406   14.04641382275480
H         8.27626003002785    9.47113246364401   14.73237144692757
C         9.81907224550284   10.67656535828780   15.63096765361889
H         9.81837277004180   10.19721096890082   16.61375095487209
H        10.02100690437049   11.73900013261892   15.78076872750574
C        10.91661679421803   10.06731826888418   14.76158977679052
H        10.78054858448153    8.98303651014152   14.71878745702118
H        10.80623131421501   10.45318741939375   13.75034775358769
C        12.31644893242526   10.37623130214888   15.29140722836782
H        12.45696200245441   11.45778774500686   15.33964070326462
H        12.38223052256027    9.99591051174326   16.31414429702877
C        13.44121538677338    9.75256538237858   14.45393888025141
H        13.08362628101540    8.82472128634669   14.00414132033927
H        14.26637255094203    9.48348564575291   15.11815365524735
C        14.02321808729286   10.66864046944114   13.37160339073561
H        14.48967787808560   11.52617642680804   13.86337684333351
H        14.81367186409103   10.12056408414511   12.85165951202366
C        13.02640762732473   11.19651809609049   12.33946249135133
H        13.54688930273180   11.89911105954629   11.68387721809471
H        12.24610579113818   11.76072016177111   12.85133434495965
C        12.39125780621148   10.09983871907038   11.48547498372727
H        12.06684545338091    9.27831562340863   12.12576950470260
H        13.13360678338037    9.69927168453407   10.79119434870189
C        11.17989558872650   10.61289684551155   10.71047509830469
H        11.49105002027918   11.38685688752336   10.00599733947215
H        10.48326878946088   11.07405076622396   11.41275110640265
C        10.46888048573678    9.49162655665585    9.95513509871243
H        10.30792763131558    8.64629576645300   10.62962976199828
H        11.11443933828464    9.14513577466075    9.14484695302661
C         9.12217960862232    9.92930284505864    9.37685778544398
H         9.24087360806396   10.89199700754003    8.87598658637503
H         8.79971850869660    9.20209248437946    8.62646756048386
C         8.03369220834401   10.04799532364065   10.44122063260518
H         7.89748089334097    9.08122161159567   10.93428847725508
H         8.33158148455069   10.77348126962837   11.20481036681655
C         6.71226607612491   10.52233086869395    9.84497574968664
H         6.32073267615065    9.81158182234303    9.11324356201444
H         6.86062714334037   11.48672568218613    9.35476339832999
C         4.65134430188589   12.03929770525336   16.09761931896390
H         4.66816707389111   11.52179329993800   17.06137858992682
H         5.07942576177687   13.03425530609029   16.23376543187744
C         3.22598747072861   12.14722647974252   15.56047080649089
H         3.22213149020425   12.80891177375234   14.69077745849772
H         2.88707361424419   11.16329559142567   15.23050672533307
C         2.28044435040865   12.68441388990540   16.63310792216507
H         2.63162360062068   13.66963639313889   16.94782325914304
H         2.32631157198533   12.03227344939177   17.50874183720024
C         0.82574546292594   12.81643523366722   16.17622930032251
H         0.76829563503836   13.57655958458518   15.39362561946191
H         0.23422740979100   13.17094610373972   17.02365501454649
C         0.19913234858313   11.52935817095910   15.63580954961811
H        -0.84790749583067   11.73273976628559   15.39700266123907
H         0.69329176419678   11.25561821770043   14.70129574017882
C         0.26935221683658   10.34054268325892   16.59246207739411
H         1.31295078646029   10.12164687771094   16.81316173689106
H        -0.22344661765470   10.59063068320045   17.53419663544001
C        -0.38553613946617    9.10476306818552   15.97533870568234
H        -0.05774297372177    9.00807844616598   14.93876554567008
H        -1.46866884246324    9.24802767151306   15.95477714098440
C        -0.08393360229020    7.79790479182048   16.71202330008881
H        -0.62817620789091    6.99580510533570   16.20674939093192
H        -0.46814649467847    7.86233315496205   17.73277355293206
C         1.40049936423329    7.42002477474566   16.77422517397547
H         1.91346825901439    8.07882749872116   17.47593273593142
H         1.47578192596180    6.40479534710690   17.17170968688142
C         2.09262416230524    7.47365094830003   15.41319743247309
H         1.46822752351190    6.95444785662863   14.68103061929256
H         2.18145262228276    8.51157683714266   15.09055303825678
C         3.47545528189337    6.81930005128710   15.39864011323029
H         3.89298969057739    6.91859162062954   14.39370600100307
H         3.36031944439258    5.75033289399587   15.59480946101611
C         4.47400528983505    7.37438667548485   16.41841003247244
H         5.43685649467793    6.88561772926233   16.24736277304000
H         4.14654748070163    7.10003281174361   17.42325235882639
C         4.67606260203093    8.89185264603539   16.38049403875673
H         3.74616239381392    9.38422120392351   16.66279388775849
H         5.42422379135188    9.14494385074107   17.13536732610662
C         5.12563220384809    9.39288417016848   15.01197531608926
H         4.30061524081280    9.31878186511023   14.30353287993455
H         5.93751018208449    8.76585525635171   14.63257522732889
C         4.06534176373374   11.56822939158235   10.29221137618456
H         4.45337198354596   12.40910302294815    9.71502439477301
H         3.61502660754909   10.84897441427658    9.60226991230010
C         3.04494106202790   12.05303703547683   11.31872376950466
H         2.83118460226296   11.24026079343312   12.02071728972115
H         3.48929531658974   12.87327564803802   11.89443904582347
C         1.73641932705561   12.49833440777987   10.67052118802533
H         1.41618034885408   11.71392684606139    9.98321770642219
H         1.90888613709404   13.39536678877176   10.07445414397337
C         0.63576239082971   12.75119128742993   11.70847083628783
H         0.88351856232338   12.22639439126407   12.63200247838510
H         0.59945775289514   13.81403905124617   11.95397879534292
C        -0.76077066385083   12.31194560775304   11.25857251670996
H        -1.06861849061994   12.91367248092697   10.40018596450376
H        -1.45540940353392   12.52478137163613   12.07496994185399
C        -0.88554391760131   10.83085464411636   10.88008400195696
H        -1.94480432498406   10.60732701076079   10.73040306095288
H        -0.38503818756027   10.65316145668947    9.92746275727156
C        -0.32343481568769    9.88473207495845   11.93860216989594
H        -0.76276361522544   10.14463528871720   12.90492449230489
H         0.75495812061620   10.02233898108872   12.01551674518077
C        -0.61736949680250    8.40895146644166   11.66372297953054
H        -0.20904094927095    7.81589660176189   12.48575345404394
H        -1.70005096569529    8.25914541315221   11.66440192416776
C        -0.06925230575910    7.87052187530749   10.33968232817938
H        -0.33209330815354    6.81129803598053   10.27271605746547
H        -0.57072760678234    8.37817057476623    9.51324804052237
C         1.44274610607357    8.01027349032233   10.14850640279454
H         1.71191161715641    9.06686498947091   10.14815838970427
H         1.69074133730291    7.60589428656287    9.16327007268120
C         2.26181843836559    7.26658825025005   11.20435538161922
H         2.27263794751700    7.83680859217190   12.13452202791239
H         1.77669168504737    6.31127184378491   11.41985740982188
C         3.69457554931863    6.96427498218762   10.75454446849028
H         3.64815573101474    6.29163890144991    9.89442282216266
H         4.20976974994103    6.43130507961807   11.55821680533811
C         4.52885787592685    8.18604321836903   10.35415429553724
H         5.46525605555799    7.82737775996070    9.92260871885147
H         3.99837812922702    8.73746621461882    9.57749202859425
C         4.83558870580663    9.09171031203132   11.54281117530374
H         5.56236060058417    8.60696771212730   12.19867346299275
H         3.92613586060638    9.24939005257920   12.12636278715933

