51
CSD_code = NIPCOE | q = 0 | S = 0 | Stoichiometry = C24H22MnNO3 | MND = 8
Mn        5.05307167802236    0.70220015732729    1.98828341965308
N         2.09739935027317   -1.66020526647575    5.38427527449981
O         7.12034868103047    2.70176359935689    1.38562973123792
O         6.80629008813378   -1.60496151541215    2.44687578991297
O         4.59747651480209    0.30515352681824   -0.88733750222434
C         3.99166803133510   -0.44523139481036    4.34479981733369
C         3.39298766920787   -0.55259785729230    2.96264253419264
C         2.89296342671318    0.57345133580758    2.32797193220294
C         3.41399183268554    1.85989628721426    2.63132897640772
C         4.38141327412748    1.94400909105349    3.67028590674472
C         4.84679024652144    0.79807620757349    4.29247256149386
C         6.31700963157324    1.91102190826680    1.61310709082600
C         6.14234059717700   -0.69304443100214    2.23292465926244
C         4.78793833224077    0.46077612188564    0.23608333846959
C         2.91671892550263   -0.43323188383893    5.49847889861248
C         0.93354595634613    0.67318933476772    4.39778424189756
C         0.18324481648891    1.79059573030443    4.07717051517076
C         0.53844680638734    3.03446192316491    4.57002321014297
C         1.64977118023262    3.15128092438949    5.38640272899016
C         2.39954114272731    2.03357844453082    5.70990523637549
C         2.04230773166599    0.77644311616399    5.23247983194893
C         2.85373401321178    0.12302199674580    7.95771664094578
C         3.37057655337036    0.09756875552119    9.23961683246552
C         4.62720444178176   -0.43209000365338    9.47547970209181
C         5.35466088083421   -0.93584514731422    8.41358388706639
C         4.83436166598067   -0.91206865398341    7.13004367834895
C         3.57743129591920   -0.37263089649259    6.87301801375399
C         2.82989002405132   -2.91208563697311    5.40405477338786
C         1.01616735755349   -1.73253166888203    6.35158485407831
H         4.63327568369021   -1.31045303950730    4.52001726230553
H         2.99920557693180   -1.52327266239880    2.67684974970356
H         2.16357168936313    0.47225993005065    1.52633010299442
H         2.93655629501824    2.75501258651139    2.24857870659785
H         4.81574179145822    2.91239051101813    3.91265594331383
H         5.61495056006512    0.89768494055205    5.05477507968478
H         0.65762701178407   -0.29483005278752    4.00885146274664
H        -0.67919807534221    1.68921228790118    3.43422077896884
H        -0.04580336621781    3.90739620244302    4.31868750441464
H         1.93970432856875    4.11789611075706    5.77243027078662
H         3.26430690548897    2.14283311590411    6.34903918336307
H         1.87300110063578    0.54678250328798    7.80047430790979
H         2.78535813954007    0.49266023584160   10.05726926958274
H         5.03349193722836   -0.45280981004390   10.47563691200815
H         6.33602047426182   -1.35629849614236    8.57913576719082
H         5.43962374459957   -1.32301847940978    6.33653837618651
H         2.10322642366226   -3.72172210121863    5.34522069398073
H         3.48376465181124   -2.99920964979692    4.53953946938171
H         3.42306075449443   -3.05363535933264    6.31963975599025
H         0.31505541076369   -2.49848094679994    6.01710032003303
H         1.36153144406208   -1.99816721060069    7.36106820980819
H         0.48573537223384   -0.78519472098972    6.40155429775782

