116
CSD_code = NIPMOP | q = 0 | S = 0 | Stoichiometry = C59H50Cl2IrOP3 | MND = 6
Ir       -1.89344838344341    4.31170741090108    2.42512973059946
Cl       -2.07826389993318    6.76425952338408    2.15005456044195
Cl       -1.69594911798112    3.70991332452736    0.06450008947988
P        -4.19520098028189    4.58031035771034    2.53373847543303
P         0.36292731409515    4.29319744005493    1.95350029905332
P        -1.40194756110521    3.43193177920767    6.89892778829948
O        -1.60675892417519    1.13197627730406    5.18364440317224
H        -0.87132226892918    0.85157648994745    4.62475412041585
C        -1.66928353246628    4.60527100157371    4.38990206485348
H        -1.36780609248560    5.54997859132271    4.83659588371652
C        -1.82471768730234    3.52480220642429    5.16578909860548
C        -2.24259461210977    2.22191277213492    4.52347570255571
H        -3.32522678810516    2.07067366235304    4.66079317263352
C        -1.96049415456837    2.34007146530311    3.03395751480590
C        -1.79908357032618    1.23552830215787    2.32202944935699
H        -1.88606339352916    0.24304282253993    2.75198256403274
H        -1.58851590771556    1.25813408137962    1.26739445861127
C        -4.97872919601540    5.75860602314586    1.38097677886606
C        -4.46803425106600    5.85519532668410    0.09159934235093
H        -3.59265376109000    5.28351160929227   -0.18283833639521
C        -5.06884599406360    6.69237010657791   -0.83007665599779
H        -4.65959409339341    6.77262526422279   -1.82649905867275
C        -6.18784331332521    7.42752721057470   -0.47658684145468
H        -6.65404800721489    8.08687103994787   -1.19471315954271
C        -6.71099353475184    7.31606923969222    0.80081739533801
H        -7.58797294694865    7.88392241796693    1.07871239001332
C        -6.11499082025980    6.48123943262581    1.72844859590313
H        -6.53059350186189    6.40382426594377    2.72378595216198
C        -4.72204415972897    5.16781652191921    4.17493363527041
C        -4.59004915909046    6.51930611479326    4.48606514248626
H        -4.22376070820061    7.20105694431146    3.73190186916888
C        -4.91202000177798    6.97782477514788    5.75055691598440
H        -4.82195964266667    8.03025965688093    5.97879800661921
C        -5.34911266279140    6.09243319738833    6.72445903439120
H        -5.60442333256679    6.45155009943926    7.71138811693793
C        -5.44911856586841    4.74170826492469    6.43162303021481
H        -5.77900189132710    4.04568447944637    7.19011701621141
C        -5.13217609554066    4.28112296449513    5.16634274348954
H        -5.21832859258066    3.22693305124384    4.94226313611459
C        -5.32952428557654    3.19105781231854    2.17928588428549
C        -6.63530815581452    3.14375194560824    2.65679521755966
H        -6.99991721871371    3.91344429625356    3.32278772316103
C        -7.47261949885232    2.11056725925543    2.27866208130629
H        -8.48425061801121    2.07439576467170    2.65787794469800
C        -7.02197978464055    1.12913605091878    1.41021155963117
H        -7.68120084504439    0.32418139841200    1.11864089232570
C        -5.73310101826378    1.19076390217921    0.90801567332871
H        -5.38411375282205    0.43783996149077    0.21681957663855
C        -4.89015446341653    2.22021932119292    1.28651094580636
H        -3.88760601728006    2.28373188671540    0.89067957925186
C         1.07256488696356    5.29447644965247    0.60306480459497
C         2.43784742939563    5.16128431833268    0.35464340547396
H         3.02781501008666    4.47058590992470    0.94328945333390
C         3.03606560625838    5.90240046452724   -0.64515537515389
H         4.09341189262255    5.78878134939834   -0.83921237811750
C         2.28149487870675    6.78994946994523   -1.39703547937069
H         2.75145111727900    7.36680114767864   -2.18075761200906
C         0.93039539832499    6.93743864037497   -1.13872682034149
H         0.34111652037177    7.63381992320451   -1.71691476084605
C         0.32384996441023    6.19464420871335   -0.14001627733730
H        -0.72834420037958    6.31891486190537    0.06074525039037
C         1.45180033835339    4.94585103397586    3.28312767200362
C         1.06554131035532    6.18042662330455    3.80160555732765
H         0.19205852984602    6.66905204237585    3.39019337245081
C         1.78979599347923    6.77473495375856    4.81685891192494
H         1.47470389696090    7.72722904177351    5.21806541586481
C         2.92152339443640    6.15037072494160    5.31695612497809
H         3.49009770573563    6.61046270267753    6.11230292388081
C         3.33333882443047    4.94251472071236    4.78123750696579
H         4.23006412954116    4.46555077571119    5.15235613970769
C         2.60444410804359    4.34039157739966    3.76827220920683
H         2.93985048268085    3.39754936843971    3.35798959056045
C         1.04227255584146    2.63863604408396    1.63593437946536
C         1.15694713130533    1.75484573188375    2.70618678345132
H         0.89597823663978    2.09530494266131    3.69973502110669
C         1.59870486748984    0.46144423075841    2.50353801548676
H         1.69853724808460   -0.21429213316325    3.34259522263721
C         1.90125794389291    0.02900355744862    1.22191438829061
H         2.24055832410383   -0.98384362624506    1.05998869499113
C         1.75286340609375    0.89181327060747    0.14896740427940
H         1.96801012303375    0.54886669236157   -0.85251875793768
C         1.32257401868386    2.19168305824896    0.35095835804884
H         1.18748214980144    2.85775913966479   -0.48865558429566
C        -0.00029842322135    2.32477003153842    7.18645620050507
C        -0.01959800037876    1.29956044880447    8.12228371661604
H        -0.89522994102058    1.14258243611332    8.73554231764729
C         1.08989512034032    0.48268387024492    8.25619649174604
H         1.08080394760823   -0.31776128605995    8.98091882093048
C         2.20821028407264    0.68575997841414    7.46355577844536
H         3.06741949116219    0.04068347624135    7.57041834803594
C         2.22749942460658    1.71454219736464    6.53359448464420
H         3.09789414737319    1.87503593437148    5.91540435118276
C         1.12540149888235    2.53566031856817    6.39399188763080
H         1.12270357927586    3.34671807265085    5.67635088733342
C        -2.78454788778698    2.91448215940581    7.94870826668166
C        -3.41477716740057    1.70029733251890    7.68259941246303
H        -3.03857183229829    1.06751125925804    6.89344068565647
C        -4.50468904073652    1.31307032912200    8.44025917173836
H        -4.99512357218637    0.37365950345079    8.23279741130949
C        -4.96898398941256    2.12738617911817    9.46168295421566
H        -5.82287385934747    1.82370283106999   10.04879221472054
C        -4.33738489770679    3.33102175137327    9.73083430724148
H        -4.69569664534110    3.96314195883839   10.52974254387440
C        -3.24825085490078    3.72981656387984    8.97679358865937
H        -2.75658288803257    4.66881394000316    9.18758340550479
C        -0.87477998537150    5.07945464471813    7.41330384597414
C         0.37826386562454    5.32544791869819    7.96092219138321
H         1.06664009600612    4.51070303755478    8.13406709458978
C         0.74221085689427    6.62146732055826    8.28246454875638
H         1.71611659269307    6.81264839010372    8.70732573591728
C        -0.13453016961177    7.66965198569022    8.05603127271261
H         0.15907755705705    8.67963367820286    8.30004076718658
C        -1.38826149934800    7.42438101178954    7.51800575949508
H        -2.07321241041908    8.23914709734909    7.33982953480593
C        -1.76226227542003    6.13288171184174    7.19804627224259
H        -2.73923489360092    5.93155758623497    6.78155066553939

