49
CSD_code = NIPMOO | q = 0 | S = 0 | Stoichiometry = C18H20N6NiS4 | MND = 6
Ni        0.46399742649446    2.65479994539888    2.47487752123425
S        -1.60009316563887    1.26114187658536    2.48372930892880
S        -0.58075911705450    4.84859759503407    1.78294774513615
S        -3.25132181395857    1.09878532201186    4.89907542523324
S        -0.80324566179444    5.39529898250786   -1.15919983819397
N         2.27981610484835    3.81964523594827    3.07690610659099
N         1.66853390610817    0.75333283205203    2.51151888681634
N         0.05628353697442    2.93660482148199    4.22314479159029
N         0.69707700855205    2.42597104805897    0.69076812924637
N        -1.02588685213950    2.45996912073432    4.81221327621246
N         0.28327800463547    3.28563650611796   -0.21266112523556
C         3.35633605688523    4.27588674420298    2.44759167524001
C         3.63463527511923    3.75083628732144    1.07675525896652
C         2.08134491684006   -0.08097811480046    3.45777218284611
C         2.01633202044917    0.39512208028758    4.87338474152164
C         4.20646749573420    5.20872606672133    3.03831427359525
C         2.56091335167890   -1.35271898769438    3.15369992052889
C         3.93101620364138    5.67515588918483    4.31422301969697
C         2.61249377527571   -1.76521589522673    1.83084713868686
C         2.81534871798762    5.19899102233656    4.97141150580146
C         2.18509008413632   -0.89997381357455    0.84534031834723
C         2.00114572153545    4.26786950054153    4.31988078298636
C         1.70942984299676    0.36042532466955    1.22048398706041
C         0.81468669948344    3.73491212313588    4.91961520910548
C         1.22919353783097    1.31375832359874    0.26681687925644
C        -1.82637539791691    1.70497224359819    4.10026507229732
C        -0.30973550230759    4.38740268281112    0.17904619971414
C        -3.11875233803496    1.89304231081077    6.52848060616419
C        -1.62618483973267    6.76358472946749   -0.30025302877837
H         2.88547542461052    4.12385092752820    0.37902172767739
H         4.61680932396706    4.06057811855391    0.73110903507346
H         3.57449542082772    2.66414182659090    1.07877302524987
H         2.54654896387502   -0.28001534046975    5.53916361111357
H         2.44443441354957    1.39302163116443    4.94758630516092
H         0.97573087983342    0.45341647025407    5.19095377607766
H         5.07340578777934    5.55914341634605    2.50073060262061
H         2.89078655792386   -2.00577937114387    3.94630031966561
H         4.58040991124883    6.39846043393389    4.78480124700653
H         2.98142701951907   -2.74832688967942    1.57855982337015
H         2.55829170562899    5.53494442115544    5.96327334326258
H         2.20022711837882   -1.17834799543969   -0.19617395302859
H         0.53098423854235    4.00168462664020    5.93175834863601
H         1.28436939154441    1.12020110064030   -0.79811408791731
H        -2.22030805915886    1.54426463387347    7.02611433468395
H        -3.08583263200239    2.96885204258050    6.39468266768868
H        -4.00405041723425    1.60067076186155    7.08327090170800
H        -0.91565074521927    7.25632081114545    0.35657111988593
H        -1.97513095309461    7.44288485226059   -1.07066056026096
H        -2.46028834915727    6.37335171887198    0.27498244172388

