51
CSD_code = NIPNIJ | q = 0 | S = 0 | Stoichiometry = C20H21IN5O3Re | MND = 6
Re        3.16060284665795    5.09054360729303    2.60212688907653
I         5.24934644857804    3.91450524514013    3.89458620469957
O         3.06050680581762    7.48685847896193    4.55173218981122
O         1.03607393010608    6.52758270482455    0.88691967458377
O         0.95644666338620    4.01473199175885    4.48309708270120
N         4.96032423385380    5.90275746997628    1.06722445201473
N         3.18418094737905    3.27110480804880    1.24578923068496
N         3.58814814822684    3.33460548436336   -0.03567569747284
N         6.93740196933480    8.31945653928223    3.00444900853239
N         7.06075867992587    9.47368705986410    2.33558261724720
C         3.14476487841833    6.62783660691005    3.79416756795193
C         1.83781595195266    5.97202787237612    1.49611380092368
C         1.76818814983010    4.38345735548179    3.76090082767062
C         2.98185640464142    1.98479171289182    1.52410008842352
C         2.47439633423814    1.47212348889161    2.82082035910821
C         3.28072746154884    1.21666885950794    0.39219225479854
C         3.66645332967957    2.10477510468498   -0.58739531758883
C         4.09360479988387    1.85635464274481   -1.98671790446432
C         3.83435547397443    4.60406493905647   -0.66641035521732
C         5.06724659621162    5.27587822921687   -0.10846092540532
C         6.24834802697602    5.23424609075522   -0.83216261427366
C         7.36273855970533    5.88609874376605   -0.33369094155779
C         7.22851084232867    6.60496318583823    0.83687916414415
C         6.01068862048246    6.60708178479197    1.50793220161314
C         5.83126847177294    7.45402194835404    2.74171151215763
C         7.96943078184985    8.11643576051312    3.86240834870170
C         8.07752834995191    6.91285128410034    4.72345559343830
C         8.78965542869869    9.21492930112279    3.73433449973058
C         8.17500542872331   10.03475536829881    2.76812302752262
C         8.64239874300224   11.34946976215489    2.25473119196371
H         2.51660350808052    0.38630761597794    2.82338243099083
H         1.44057939531940    1.78391889811378    2.96938695194739
H         3.06282261368671    1.84505920024760    3.65653624813995
H         3.21979952604144    0.15141901207120    0.31036930987075
H         4.07336185839394    0.78753841535261   -2.17953190854651
H         5.10805637718920    2.21687682085550   -2.15744684892880
H         3.42549183549083    2.34605510334418   -2.69599589342291
H         2.96474058585932    5.25444533108595   -0.50168194208122
H         3.95501374265219    4.44165389141642   -1.73777992251838
H         6.28873760076394    4.70206814378336   -1.76961197765064
H         8.30479231614780    5.85215417229059   -0.85829275814180
H         8.05697280923711    7.16791457206982    1.23288205400545
H         4.93776030369169    8.07300151097136    2.59321702014747
H         5.67645146354282    6.81556440325908    3.61670826674971
H         9.01058902985262    6.94508954123854    5.27829930658582
H         8.05398021677252    5.99603160193943    4.13446058788998
H         7.25567630840734    6.87010934350542    5.43848923303388
H         9.70085937717350    9.40855044437395    4.26256822923119
H         9.63595410180494   11.25613491428091    1.81768545132030
H         8.69646578828194   12.07366990216005    3.06649987433059
H         7.95001793447022   11.71127173068486    1.50019225551250

