111
CSD_code = NIPPIL | q = 0 | S = 0 | Stoichiometry = C46H60O4Ti | MND = 4
Ti        8.53833302425012    2.90391030338822    3.47637143867414
O         9.05682392778328    3.77364029563666    4.90057147222274
C         9.81656179664993    3.22702711783956    5.86037058092901
C         9.41699436505207    3.24529354767190    7.21567786574769
C        10.26834585297242    2.68107926218166    8.15267454950210
C        11.48579066241625    2.10411274019092    7.81151829348441
C        11.86331725369736    2.09906695254350    6.48096260958423
C        11.05286532220677    2.65854124218852    5.50542622872902
C        11.51187488738839    2.63874492014838    4.06245701207043
C        11.42433368551151    1.23706805770075    3.50424112271087
C        12.57193281670982    0.56284363959002    3.12312549969046
C        12.51743940032441   -0.74570038888997    2.67327533205394
C        11.28855089022495   -1.39176378749770    2.66501355099400
C        10.11127059776839   -0.76680581217053    3.04711072145616
C        10.17592971424706    0.59149353418221    3.42840523544688
O         9.07248626776608    1.28187462134152    3.73994746345530
C         8.07033561442561    3.84688959310656    7.60709769304626
C         7.81448947883930    3.80135311455500    9.11764580997914
C         6.95896340323840    3.04171728016939    6.91640735258238
C         8.00588877421091    5.31666287910230    7.16795981016997
C        12.35671183023456    1.50244607226804    8.87468870741967
C        13.75815695244054   -1.47514166371096    2.24955261195736
C         8.78672001232348   -1.51840924957636    3.12133545779591
C         8.28935274768251   -1.46087848795725    4.57404839602768
C         7.75677883346545   -0.87756478356247    2.18106197982926
C         8.91726471975377   -2.99450265239608    2.72923909367594
O         6.83474306210938    2.84277666146628    3.19040861346250
C         5.79879821664151    3.63183882707754    3.49956034526440
C         4.54218966186097    3.09351776387347    3.85349136587685
C         3.54151223223876    3.97430623339420    4.23579651614151
C         3.72007471782913    5.35078797083466    4.25263811632514
C         4.93438866192491    5.86369387639672    3.82758646619112
C         5.97062070480100    5.02802790881532    3.44811856383713
C         7.26141938600896    5.60531039251979    2.91518613315037
C         7.45774884725398    5.20192830598752    1.46872805041992
C         6.65868383199190    5.77461044431005    0.49140227785717
C         6.81222889224209    5.44030619183614   -0.84186368970185
C         7.78995866523146    4.51391955469087   -1.18461564159134
C         8.60911422384785    3.90613276157545   -0.24625136577155
C         8.43050106676155    4.25108517685847    1.11239806584886
O         9.19479087062936    3.71676415005819    2.07540768099303
C         4.29737478587895    1.59217570209284    3.74891059340088
C         2.86221356059418    1.19634014002813    4.11399700893252
C         5.24236779706368    0.83053794882219    4.68819154156103
C         4.54392480704556    1.17250004004012    2.29147923671270
C         2.59980857331481    6.25651882740762    4.67173758661676
C         5.95202464477054    6.05351856513897   -1.90718079198845
C         9.66087404572885    2.87310635340251   -0.64025320763560
C         9.73421445187119    2.64575718116277   -2.15423967931239
C        11.04770602502910    3.33608380032428   -0.17142153001290
C         9.30103041410760    1.53368340527265    0.02060437355762
H         9.99266267374984    2.67816301823769    9.19471324073802
H        12.80407711558568    1.65502373032816    6.18624059620311
H        10.89622390855262    3.33317835865323    3.46870642297468
H        12.55168869989657    2.97420755487377    4.01221731303948
H        13.52554886886145    1.07024257677720    3.17795425886928
H        11.27055060606835   -2.42212387618488    2.34925675681493
H         7.79692294414614    2.77821743793584    9.48542194492635
H         8.56974857310702    4.36404097033492    9.66115989691469
H         6.84533890839045    4.24957772220447    9.32799654955383
H         5.98345996591905    3.46241336834895    7.15585688863478
H         7.08336339761281    3.05861615953253    5.83066181278518
H         6.98842868416921    2.00663618846922    7.25528395619319
H         8.78730037961916    5.88974520164406    7.66371471993657
H         8.13772983479899    5.40631339719702    6.09266403868542
H         7.03967994766667    5.74303405993283    7.43129772553767
H        11.86434425978113    0.64185448374077    9.32693383492326
H        13.30588393062076    1.17583428715239    8.45798825383646
H        12.55281354874764    2.22640722263669    9.66438315498138
H        14.07484745428085   -2.16711125095358    3.03049838800564
H        13.57542571648136   -2.05415458097879    1.34631367389487
H        14.57200012564585   -0.77940564224198    2.06134002400696
H         9.00466284099583   -1.95136165061012    5.23183304723146
H         8.17169283816247   -0.43005400531279    4.90293096722958
H         7.33047569537526   -1.96729857596441    4.66492983070300
H         7.60162836865262    0.17444754466106    2.42575463729828
H         8.09820803563746   -0.95145809186644    1.15042810329533
H         6.80398486134232   -1.39655483726310    2.26710228931614
H         7.94559520567891   -3.47539733077494    2.82422471545918
H         9.24381157998204   -3.10145826614340    1.69748469979702
H         9.61379805134441   -3.51586432405580    3.38129414796158
H         2.57722885631877    3.59405227345526    4.53110754799748
H         5.07890147716207    6.93498177532483    3.79130486701768
H         7.21370228867080    6.69612019769648    2.98001080760110
H         8.11901282355022    5.26119024156185    3.51550123572409
H         5.90668576681392    6.49306179697872    0.78702517117410
H         7.89842652854272    4.27055816468656   -2.22907093518826
H         2.63413411183151    1.44764609220564    5.14716592891296
H         2.14092103600327    1.68020152346637    3.45994937649932
H         2.74945700363714    0.12003233182027    3.99878435707458
H         5.08483691839456   -0.24114419325688    4.58214104209371
H         6.28613485635437    1.05153481327257    4.45981862975034
H         5.04268700128940    1.10809183787970    5.72127923746458
H         4.39879044495536    0.09999798089617    2.17793376242642
H         3.84772353165397    1.68863230040997    1.63279514079613
H         5.55734426572152    1.42188911084495    1.98260897065994
H         2.97846096440850    7.23516638615916    4.95630322995432
H         1.89578287208312    6.39089476135526    3.84975259458379
H         2.05397063737601    5.83265348513499    5.51212398111642
H         5.28195615409612    6.79666953916983   -1.48298572852153
H         6.56744055539238    6.53259020606612   -2.66759523214955
H         5.35212607626586    5.28794972611485   -2.39851154571744
H         8.79206957041987    2.26787785077542   -2.54401245795696
H         9.99559387263290    3.56277821276441   -2.67692500509581
H        10.50462173821587    1.90682107916270   -2.36597263841056
H        11.79916856821295    2.59575074764229   -0.43954437571308
H        11.30547863439446    4.28223970064683   -0.64389176086639
H        11.06799410522498    3.46907947459851    0.90720952086480
H         8.33415073867004    1.19000229671993   -0.34551314201584
H        10.05330758939250    0.78220724718891   -0.21457860637974
H         9.24736901309091    1.63753565755170    1.10719761722297

