74
CSD_code = NIPREK | q = 0 | S = 0 | Stoichiometry = C25H44IOP2Rh | MND = 4
Rh       -3.10463576039145    7.20025328360445    5.29376841683544
I        -0.44276638207665    7.19215358767127    5.58669745605711
P        -3.25245187453514    5.70309565302428    3.50993010104630
C        -4.82485708189878    4.75094483086002    3.15539136836131
H        -4.66254002257497    4.25964990343785    2.19634287254088
H        -4.82656901589036    3.97476916119450    3.92981443687537
C        -6.18902360871201    5.36409000094116    3.11103374765209
C        -6.92351418764137    5.67046366830374    4.25861991682700
C        -8.27180748562838    6.00030363091511    4.12529450834661
H        -8.86378799436584    6.16586034952339    5.01533079493871
C        -8.87944400553661    6.10521716480496    2.88991792611191
H        -9.92379756289314    6.36886953068628    2.81984787191258
C        -8.13779101495038    5.85673957488372    1.74866470445575
H        -8.59108535683026    5.93414294231262    0.77216868600771
C        -6.81959699430910    5.46655517002787    1.87046386110324
H        -6.26728333988827    5.21641003142886    0.97532806142519
C        -6.34625911436643    5.57484899295893    5.63276366870083
H        -5.73228851567178    4.67167086179802    5.71116932971247
H        -7.16316920947914    5.49485252527703    6.35069030900623
P        -5.20935753392791    6.93629322317599    6.22945038199074
C        -2.08175101159654    4.18862140712896    3.33396619170245
C        -2.55135355069896    3.06314889113840    2.40350263020282
H        -1.74254078881650    2.33692842947338    2.32472116709360
H        -2.76610924887097    3.41705308236651    1.39850867287450
H        -3.41830185483225    2.53257457121750    2.78935363297334
C        -0.67999942436101    4.58998383535128    2.87348858388034
H        -0.00038614919780    3.75238322274035    3.02819648638258
H        -0.29109087119161    5.42773839507771    3.44039858719179
H        -0.66553470896723    4.83332409635870    1.81375795461849
C        -1.98858470336741    3.62492705531476    4.75627343770174
H        -1.33802461672018    2.75217021233343    4.77375862628661
H        -2.96781865538160    3.31847603741062    5.12551871259210
H        -1.57307545386195    4.36362800021181    5.43813418471651
C        -3.10416466173404    6.82648850888534    1.98290889038940
C        -4.26210530131682    7.82296433878819    2.11313551296369
H        -4.19501862977959    8.57937679645994    1.33162367015907
H        -4.19068378287248    8.33270767287976    3.08270245920311
H        -5.23451428263449    7.34350730206451    2.04102491366386
C        -3.16707343813667    6.11920315593726    0.63293438667266
H        -3.15183180862465    6.86659678885409   -0.16041543795799
H        -4.07844568210673    5.53872082626087    0.51729945441878
H        -2.31054327872535    5.46626920745397    0.48641355330354
C        -1.81750419028626    7.65204109553160    2.06519712787031
H        -1.79300642903164    8.36853807050388    1.24403630337575
H        -0.92175782827433    7.04356928327515    2.00580636154157
H        -1.79228171374076    8.21854393018867    2.99893313150163
C        -6.38841348160580    8.43187066946124    6.39156091599399
C        -6.83512403956519    8.78398197230696    4.96834566429295
H        -7.25986054718819    9.78701730398739    4.95518038111019
H        -7.58272154718082    8.09811543623345    4.58700069637872
H        -5.98131641881886    8.77321196760484    4.29148449403390
C        -7.60881830757676    8.18943465000871    7.27631434492264
H        -8.29824208777958    9.02606377111022    7.16344618501946
H        -7.32921553543010    8.13349018113279    8.32555256297365
H        -8.14583575035185    7.28580209985501    7.00138946203462
C        -5.64389196049620    9.66311872252992    6.91388979998482
H        -6.35634990421289   10.47622875262818    7.05263963617326
H        -4.90816244102415    9.99642006031308    6.18618846545813
H        -5.14777337798717    9.49264362459755    7.86284297686544
C        -4.85722433693600    6.18093898394870    7.96130215794349
C        -6.01111341924948    5.43271071740217    8.63440139832450
H        -5.69557969777197    5.15365323835064    9.63966886416775
H        -6.26239645882127    4.51354833879625    8.11113404312836
H        -6.90476118075012    6.04113126355210    8.73001977116986
C        -4.34924245078840    7.25270037191999    8.92583281347578
H        -3.92048332882366    6.77593816439635    9.80708906466111
H        -5.15366455275746    7.90228502277700    9.26223750945348
H        -3.56645070614106    7.85313469876320    8.46598986038819
C        -3.71535611086923    5.18363599398272    7.72846862928525
H        -3.38352909686700    4.76363576438079    8.67669684189524
H        -2.85772972397869    5.68590474982428    7.26348293508356
H        -4.02747527948780    4.35759018960026    7.09124750606853
C        -2.78770540170724    8.71609030422128    6.28260266175103
O        -2.48303472913208    9.72363468627555    6.74272274273044

