131
CSD_code = NIPTIS | q = 1 | S = 0 | Stoichiometry = C54H72AgN4(1+) | MND = 2
Ag       10.28187169367017    8.44176137439559   11.99322887504111
N         8.12899529665930    6.26006911119141   12.72406802263289
N         7.94267936636475    6.68204868746033   10.64044812729972
N        12.13083434053575   10.68047722060041   13.28999287223701
N        12.87786430229850   10.19930480439205   11.34994246166126
C         8.63096293184007    7.03912216366845   11.74457591653021
C         7.15204478770946    5.43058753646922   12.24410400416332
H         6.63919816836827    4.72811786427878   12.86845638718938
C         7.03302795430844    5.69874154792801   10.92366958977245
H         6.39380241698405    5.28199101671444   10.17341888572365
C         8.52827692904998    6.28916577555763   14.08891233424103
C         7.99734422728645    7.27790867559108   14.92385499400146
C         8.38302355283248    7.27188027082608   16.25746069989430
H         7.99408322913966    8.01558042998877   16.93245593061719
C         9.25212683842942    6.31034220504284   16.73676035945048
H         9.53561262756496    6.31792540024068   17.77860333036868
C         9.74428007381313    5.32576445024685   15.90040477504191
H        10.40723701080144    4.57545299804431   16.29840680369733
C         9.38581294542771    5.29023089475204   14.55997707996033
C         6.96390022585131    8.25094013466601   14.40140670244504
H         7.17451446625814    8.45424489690171   13.34434867353948
C         6.97152862874558    9.58989651320960   15.13336295207849
H         6.58111536981652    9.48988402498917   16.14253399945735
H         6.33559197650340   10.29541314121625   14.60313414465074
H         7.97971752887947    9.99285007265186   15.18238680923984
C         5.57403621403423    7.61175152941275   14.50873209390549
H         5.50712341355287    6.70173521875173   13.91754594108595
H         4.81642209917730    8.30638968645591   14.15377852777713
H         5.35605508925906    7.36359377183119   15.54497456754235
C         9.90918365909743    4.21889681036459   13.62863084586222
H         9.18575929930188    4.07582096979187   12.81873656104445
C        11.23066699047321    4.67485009194346   13.00331671291435
H        11.10260433136449    5.62720937579133   12.48222629328085
H        11.58177583799189    3.93469825357134   12.28860186834519
H        11.98777368585315    4.80084934572959   13.77243906793506
C        10.08865930451286    2.86781108542573   14.32052474274266
H        10.93380207012967    2.88071865557672   15.00308475427490
H        10.27558620897751    2.09830197671764   13.57531583776150
H         9.19400091479090    2.59707628926004   14.87615803664559
C         8.09767502084783    7.23309849402161    9.33856447420887
C         7.19354499477615    8.20718171380503    8.90645608809846
C         7.36041555596615    8.72510210196626    7.62919647135101
H         6.68434368633791    9.48296691430319    7.26760505862362
C         8.38381164613382    8.28145174992717    6.81247620197459
H         8.49850074379829    8.69805571889011    5.82300693085607
C         9.24929498624849    7.29644260790932    7.24860657452832
H        10.03348403930931    6.94921366609840    6.59530397016866
C         9.11083876447572    6.74051810276780    8.51328424466915
C         6.07148421701382    8.69580965398707    9.79351786830256
H         5.99085630799202    8.04210341525452   10.66783616759153
C         6.38059139609046   10.10789425963177   10.29560643883238
H         7.30999419857702   10.11150240917401   10.86300515500881
H         5.57873736111117   10.45982852524420   10.94003904703903
H         6.48137117655602   10.79726059097196    9.46155465196523
C         4.72546535583899    8.65774122569341    9.06776230510972
H         4.68691978825673    9.38941259116359    8.26610845897894
H         3.92328166631674    8.88193519743459    9.76669976463178
H         4.54633180408625    7.67247017650010    8.64316023074168
C        10.02378283820044    5.62834952889827    8.97157620059522
H         9.63433723058868    5.20615758086824    9.90347125393590
C        11.41773411346471    6.18680607749106    9.25362151200615
H        11.85308356406225    6.60781937444301    8.35233443129073
H        12.07103013839798    5.40122782476885    9.62356368789245
H        11.36239104404566    6.98333800567487   10.00626911825950
C        10.08878187431503    4.49576152213404    7.94547640716535
H         9.08904037380315    4.14832758803249    7.69533887475316
H        10.65116629507975    3.65976740067629    8.35430390182545
H        10.57977841734990    4.81721882370979    7.03173852525837
C        11.91647900285992    9.86633568825058   12.23619993802306
C        13.20224723499215   11.50412028623477   13.06870628703620
H        13.52889977660362   12.22021771011470   13.79390251846709
C        13.67482747818408   11.19983616730278   11.83874129024629
H        14.49114466815192   11.60341872608124   11.27635162474620
C        11.38898765886652   10.70734651433857   14.50400063810137
C        10.36685940180341   11.64987544572594   14.65115192838430
C         9.68810456029246   11.68710346319251   15.86137511945646
H         8.89583079152315   12.40256099350566   16.00999365805115
C        10.01727733485873   10.81635792217931   16.88489710478022
H         9.47463867423203   10.85815525061099   17.81691919171149
C        11.03909866531136    9.90175050144734   16.72367275850419
H        11.28829560014820    9.23432757698481   17.53249488267502
C        11.75983588524761    9.84546861663061   15.53789386233495
C         9.99131490454501   12.56418541641646   13.50763870399813
H        10.85010618134244   12.65602142102147   12.83401598673439
C         9.61932735881754   13.97278035152670   13.96924933184541
H         8.66733368132203   13.98136611075974   14.49251355070649
H         9.53097873278037   14.62900073530835   13.10672620520356
H        10.38369700571145   14.37490784641679   14.62990393744868
C         8.83805305558954   11.93333452777603   12.72226847147813
H         9.10475008527938   10.91800361148615   12.40685602325899
H         8.61222162783591   12.52580479224000   11.83926202398607
H         7.94630582296165   11.87713961860624   13.34055922008835
C        12.90401425033765    8.87393469686872   15.37449917677928
H        13.46205101933381    9.12589491399939   14.46711376390651
C        13.88109881784102    8.94206591474603   16.54887995844534
H        14.21498353196184    9.96447011680520   16.71051325198482
H        14.75174366403383    8.32509776961227   16.33972667403798
H        13.42500224771619    8.58011267367978   17.46565569090914
C        12.34793096204706    7.46030861853487   15.20695538328850
H        11.81274634377392    7.15099005210825   16.10010895751713
H        13.15580419261566    6.75736909292092   15.02066968920447
H        11.64886334917082    7.42889822193159   14.36610472127250
C        13.08224488979810    9.61741280238084   10.06769787719369
C        12.34322285034226   10.09510323467424    8.98398663644082
C        12.56498437942846    9.51950619736134    7.73956651598074
H        11.99737066461649    9.85551332186329    6.88685135423302
C        13.51582809101650    8.53055687992476    7.58001147682832
H        13.68530127755174    8.10032482470644    6.60432045047053
C        14.26481392589398    8.09719585146851    8.65917912134650
H        15.01122833931360    7.33440151400531    8.51168719330028
C        14.06685278221730    8.63434137440106    9.92304399623986
C        11.33619237077680   11.20831786561441    9.14912046000719
H        11.45391764645928   11.65328088431273   10.14242109090004
C        11.54824356616604   12.31896856152796    8.11891936583409
H        12.57884928486868   12.66584899469941    8.13633903373681
H        10.89820303741626   13.16076423733858    8.34517368980555
H        11.31739992535881   11.97627096863835    7.11458335975520
C         9.92100366896993   10.64009294525875    9.05109198093959
H         9.75331567404264   10.19234256434046    8.07605078333050
H         9.18609170585894   11.42537578650878    9.20577017000802
H         9.77163938710394    9.86163862803930    9.81035112255737
C        14.86628229883046    8.15834188933977   11.11482549505040
H        14.88775010583739    8.95569371310596   11.86543047783313
C        16.31615603032378    7.82727255589930   10.76146472703540
H        16.38375569032425    6.91388373500188   10.17725759383030
H        16.89040200504660    7.68156008931512   11.67329658880179
H        16.76979848346583    8.63794477275626   10.19626594384183
C        14.17589267645515    6.94148948534973   11.73740311017520
H        13.15533287680959    7.18990377517284   12.03406434291139
H        14.72284297255254    6.60943161032212   12.61621493694363
H        14.13826521831984    6.12349245822044   11.02282498233448

