97
CSD_code = NIPXUH | q = 0 | S = 0 | Stoichiometry = C42H48MoN4O2 | MND = 6
Mo        2.71328600640751    5.69125811390658    4.48279433263537
O         1.71598976243513    5.57700092694379    1.56098933990103
O        -0.23318360102469    6.56453189886150    4.80071000816960
N         3.48099566473801    7.45504467797126    3.89134647291580
N         3.43409995996757    6.62377366606578    6.31799618520532
N         4.38230968107658    4.30529626428208    4.25649052515812
N         1.98093157246331    3.91250916867901    5.07765674008209
C         4.06512935583721    8.24566457225409    4.79262036047976
C         4.03086286726024    7.78737775698278    6.09260567854024
C         4.07854190452378    3.07998414762509    4.66525433960368
C         2.79209169210813    2.85390559514328    5.10640576353362
C         2.13526489891563    5.52437181179832    2.63602229012766
C         0.89392366693479    6.31936970166455    4.74101530099360
C         3.29030220210250    8.05816448686679    2.61959892014236
C         4.20219554819001    7.87665127446452    1.57603306742377
C         3.94260407668579    8.43364936137670    0.33211832191008
C         2.81234914099514    9.19714149389193    0.09637695634736
C         1.95687921893076    9.43313166712553    1.16101065915494
C         2.18275113942415    8.89563178427545    2.41918633667106
C         5.46205343268300    7.09460189965235    1.77425561131214
C         2.54313300867242    9.79794476539359   -1.25001003606436
C         1.22453989791119    9.24471274319590    3.52105896832515
C         3.15552806477452    6.39869061965120    7.68468329359834
C         2.26679901457249    7.27456672550225    8.33791257206359
C         2.00028335719987    7.10100249385986    9.68587190694694
C         2.59353245635084    6.08896028290455   10.42581256535670
C         3.45565627879158    5.22841461182631    9.76944775488243
C         3.74483046195440    5.36374715596075    8.41837959143770
C         1.55474475028549    8.36703448428071    7.59306373751595
C         2.28205767315726    5.91892797629816   11.88156339128492
C         4.70896463470672    4.39818587302215    7.79843708356173
C         5.59731508123431    4.35953083932494    3.53591543153018
C         6.72925661974190    5.03235140076985    4.00609195695444
C         7.90221267910372    5.00582637611400    3.26291811611945
C         7.99382941608605    4.32969014006047    2.05974866533947
C         6.86129569630901    3.67626581613136    1.59515677542448
C         5.67395863193738    3.67462396464999    2.30763801233009
C         6.73138825267940    5.77032618554948    5.31053528951906
C         9.27237551222382    4.28979501974251    1.27936472933517
C         4.47536860298083    2.98376122011053    1.72427686965663
C         0.60845976125216    3.59796369394012    5.26169392262992
C        -0.12524464714859    3.08100663408094    4.18366484470811
C        -1.47944616234732    2.82763646542516    4.34424314604806
C        -2.12902579342933    3.03779901139275    5.55017259026358
C        -1.37479316048044    3.48209561831291    6.62287526612140
C        -0.01968241555207    3.75132313554951    6.50111283183954
C         0.49439083453127    2.78754455764055    2.84753802657979
C        -3.59182221272272    2.74429318873390    5.69289474344468
C         0.74895875110329    4.20210723444084    7.70240508930276
H         4.48247847905772    9.20964326878143    4.51586475483003
H         4.44356473843652    8.36740256689775    6.91575738630293
H         4.81595985160943    2.28093107399116    4.61685117290522
H         2.43307024628024    1.87267859685458    5.40357072219610
H         4.65120163671051    8.26647398746610   -0.46690815301753
H         1.08840600174347   10.05999777439745    1.01471837539264
H         5.78343976931630    7.12511846128641    2.81210013466127
H         6.25820057705700    7.49178793173286    1.14807359906348
H         5.30619403038453    6.05346933172762    1.49621126042639
H         1.48316812609145    9.74445251312261   -1.48868453382400
H         3.10555616449124    9.28190820616443   -2.02398591805194
H         2.83594484280574   10.84843594765680   -1.25782024903001
H         0.94171672547369   10.29336176064608    3.44340268053493
H         1.66118237832919    9.07681291783355    4.50387738749199
H         0.31596263390574    8.64927731091603    3.43498820776603
H         1.31064649671935    7.77681434553870   10.17241617820837
H         3.92780240738256    4.42665983476153   10.32045494213053
H         0.65227831354468    8.65588707201057    8.12752081448601
H         1.27574163222946    8.02988182565759    6.59413512235060
H         2.18110766406980    9.25309304512857    7.48916969988428
H         2.16235135118611    6.88534059358422   12.36672507680176
H         3.07092886105386    5.36583711327279   12.38568384458639
H         1.34971943022033    5.36603568118527   12.00173413245451
H         4.60255282121539    3.41333802039873    8.25072265522599
H         5.73289490947664    4.73290880455828    7.96797577653224
H         4.54275162214775    4.31424330229555    6.72789177778923
H         8.76764982254520    5.52816815935057    3.64693810543337
H         6.90412072411894    3.15295887593851    0.64994881441085
H         5.72946319129870    6.09603800837793    5.57654065783081
H         7.38214789522509    6.64140204133921    5.25227747695588
H         7.11030397615639    5.12425976588675    6.10321110759387
H         9.74212958802753    3.31067697004476    1.37752836139797
H         9.97095087892753    5.04106596409406    1.63919985990482
H         9.08248211898282    4.46307354111968    0.22177525848102
H         4.61196319343471    2.83595786283066    0.65527634021916
H         3.57727288112440    3.58205164563862    1.88261512819737
H         4.31629896212912    2.00693849218078    2.18110054217899
H        -2.03801491244563    2.44866913254300    3.49980091587493
H        -1.84571169248027    3.62116618173649    7.58586309456473
H         0.22330065270348    3.56088901969896    2.12924103226862
H         0.11936093625343    1.83776450467082    2.46913922113083
H         1.57942100613836    2.73128268120087    2.90659173977040
H        -4.13856647547518    3.08577718908643    4.81657115858805
H        -4.00036305440691    3.23061617864533    6.57504363955174
H        -3.75163857459990    1.66988187246845    5.78983911383392
H         0.28554372477393    3.83154342337798    8.61399921683241
H         0.76337314965099    5.29001783745314    7.75130982975943
H         1.77714706046391    3.85092086073598    7.66288819076719

