81
CSD_code = NIPXOB | q = 0 | S = 0 | Stoichiometry = C28H41ClF3IrO4P2S | MND = 6
Ir        2.34736179128641    1.61254583584464   13.01896659258364
H         2.18769292854951    2.82286643096856   13.91962223222409
P         4.23362970754418    0.85194396261091   14.10948370967317
P         0.88959712588861    2.41292344267882   11.41887295751749
Cl        0.80236337035298    0.58881815810162   14.34575467928061
S         3.52775706674141   -0.07305594117812   10.57264483570554
O         3.85797555904357    2.48213979577950   11.64585076473346
O         2.61083151026156   -0.09235255351910   11.70122153424748
O         3.13218571480463    0.77200198227742    9.48203144823750
O         4.91999553698150   -0.06586245200236   10.92104348818334
F         3.98788997837845   -2.05381475918911    8.84462783023507
F         3.53893798004863   -2.71866448880130   10.84856991934520
F         1.95933825693586   -1.97686482326976    9.57817936816800
C         4.64849516010713   -0.96147380874715   13.94867452469401
H         4.92156981806673   -1.06729722832703   12.89255381278644
C         5.81240152594850   -1.44812944061038   14.80754997720833
H         5.59180953541255   -1.35622268328547   15.86913823708391
H         6.73341981287331   -0.91770843220830   14.58163321663289
H         5.98134163081511   -2.50236254846573   14.59317601306570
C         3.39944166000177   -1.80052671829075   14.21748268099446
H         3.61446725033647   -2.85012942532690   14.02523475511725
H         2.58821868423167   -1.50070818949430   13.56091478391253
H         3.05879937318992   -1.69672220813577   15.24516367795261
C         4.64070008360341    1.35893482235880   15.85474726918893
H         5.62552855027701    0.96034155721580   16.11893322019718
C         4.67802652860927    2.88011864700347   15.94903801630771
H         3.70501478821369    3.29081002595927   15.68864156836653
H         5.42525707311285    3.30086275983271   15.27901457442920
H         4.91835695792153    3.18336332355435   16.96623705345960
C         3.58457541320118    0.79483249574112   16.80024837320916
H         3.72221375888166    1.20190153297029   17.80038157775263
H         3.64679285150430   -0.28812057365254   16.86643929550337
H         2.58813529647951    1.06053958959574   16.45017491895599
C         5.53003132448134    1.70047325794794   13.13596814444768
C         6.86263442283350    1.63890336813370   13.51816124157777
H         7.13089317582496    1.15675024531409   14.44465875844126
C         7.84888252904292    2.19099114679099   12.72600607433167
H         8.88491045317618    2.12542032244723   13.02115130918279
C         7.50254859552539    2.80721004867902   11.54071310444374
H         8.28542472189009    3.19732622848843   10.91031156827871
C         6.17693358377817    2.93020157813619   11.14358824063879
C         5.19004337822990    2.37880678498042   11.95575476259325
C         5.84142821126696    3.58160332737214    9.81842193516064
C         6.56515403075133    4.93360242163094    9.70393645646710
H         6.35977960376111    5.40643441584105    8.74879775111364
H         7.64058372172005    4.80821228238100    9.77987454231731
H         6.23833876086886    5.60248400978717   10.49802016326217
C         6.28908073719749    2.61962426469281    8.70274727011738
H         5.76006553915548    1.67356616400737    8.80869665044765
H         7.35760113328617    2.42898974667300    8.76735803234937
H         6.06265251095413    3.03621000629668    7.72425521339313
C         3.44263101605423    3.19499755290490   10.55016594281988
C         4.34796785871369    3.78473330554069    9.67258655496104
C         3.84804135840243    4.51443632995015    8.60129161983149
H         4.53057474464751    4.95167010581991    7.89035989426786
C         2.49202304730579    4.69297294994766    8.41702850216482
H         2.12975996370686    5.28044265857791    7.58736162938732
C         1.60354774028066    4.09481551989299    9.28754721564961
H         0.54354760565638    4.23268377239764    9.14537067859846
C         2.06036835261822    3.32062608257202   10.34473986820796
C         0.09142746071542    1.16558870836531   10.28156399226032
H         0.93039270126948    0.79519663529803    9.68150937039425
C        -0.47156776819325    0.00632579142828   11.10343671382635
H        -1.28374269822555    0.32941336152043   11.75065274762694
H         0.30206393679817   -0.43295157157951   11.72601333026601
H        -0.84402214086464   -0.76898982295095   10.43634983343701
C        -0.97585438066659    1.72080829618740    9.34256553059149
H        -1.32980283667355    0.91092766477345    8.70641711475472
H        -0.58105087197955    2.49714221856146    8.69289898615628
H        -1.83049976118634    2.10842541853163    9.89335631351438
C        -0.39222122922986    3.70756474123926   11.80537785289754
H        -0.89136699105967    4.00056897761579   10.87610305606820
C         0.28477589726462    4.93070088463006   12.41361765473668
H        -0.45874752336336    5.69243756044475   12.64026865885194
H         1.01828545053211    5.35785088032141   11.73256826215230
H         0.78661723156910    4.65413672176412   13.33824630310790
C        -1.41325971545641    3.12744014846095   12.77927915874915
H        -0.90570446861687    2.69228878036874   13.63897840400959
H        -2.01645455642509    2.35453532207116   12.31044333145779
H        -2.08273089428447    3.91082730502728   13.13002584265177
C         3.23969275732691   -1.80185400727861    9.92210751105161

