61
CSD_code = NIPYAO | q = 0 | S = 0 | Stoichiometry = C26H28MoN2O4 | MND = 6
Mo        8.87660477007262    3.67962596465272    3.58099062627550
O        11.36285633106280    4.70076764121316    5.11220050657163
O         9.94959317489798    0.84376492072068    2.95879857284018
O         8.41112405534404    2.53464974062713    6.41866706066036
O        10.44256670768280    4.57868644737417    1.06522915701022
N         7.78339331235261    5.43155251682650    3.82359727993409
N         7.06255371724601    3.35676883706341    2.61159080146129
C         6.63344808522799    5.53333736680248    3.22056950579831
C         6.23305501407126    4.35568027141369    2.50790058739839
C        10.46338056306576    4.29115709374483    4.52790404875436
C         9.59283645279712    1.90619106107658    3.20603536252011
C         8.43582748259574    2.97250897776208    5.36029533004089
C         9.76116978219269    4.28193107770306    1.93579345582607
C         5.75336660605417    6.74734069894429    3.27774447181795
C         4.93387260311020    4.30449819675791    1.75714574532821
C         8.20891640855332    6.41353239946719    4.73406106246579
C         7.65389744420749    6.44388357731008    6.02043835338444
C         8.15453735609348    7.34644898284618    6.94667239175851
C         9.16623754746023    8.23765755662099    6.62585130127091
C         9.67065513857252    8.22111670654649    5.33355528342402
C         9.20892773415986    7.32688082025989    4.38179150454134
C         6.53169467353104    5.52921541770943    6.42019828979624
C         9.71098139342469    9.18536621118775    7.64998066610766
C         9.77963932747982    7.35172594114982    2.99563287366984
C         6.73259661567682    2.09277265725869    2.08695732269610
C         7.14341826553174    1.71364832792352    0.80646465901509
C         6.86298375852704    0.42936338419359    0.36146039702981
C         6.17357040865562   -0.48068300951488    1.14486113483042
C         5.73928217183452   -0.07193203218411    2.39859620314243
C         5.99616076953866    1.20033095743766    2.87925749186034
C         7.89168367301809    2.65658154538272   -0.08808203642442
C         5.89565163197550   -1.87211682815029    0.66432771605914
C         5.51264123765330    1.60537759473510    4.23970933856314
H         7.73538740559627    7.35319015238938    7.94290708304329
H        10.44573629269968    8.92144779706788    5.05692110219839
H         4.81826272662347    6.52347794898642    3.79114683128945
H         5.50626493956798    7.08190693519473    2.27069306287234
H         6.25571164752627    7.55566590829442    3.80510972247598
H         5.57709780370033    6.05351578653525    6.34951889261701
H         6.65973309720949    5.20753890430583    7.45142628577687
H         6.48255313465826    4.64433220192170    5.78530452935918
H        10.56874102030112    8.73466179626769    8.14982625688253
H         8.96289330711386    9.41482051011661    8.40521250328794
H        10.04201409674249   10.11125823591974    7.18524292130982
H        10.62669212743137    6.66690397869239    2.93047493254932
H        10.13803412698111    8.34966627258553    2.75245469465013
H         9.03982942611642    7.05550755968430    2.25224988131195
H         7.19366429781075    0.14050257158079   -0.62602261992327
H         5.18302663770352   -0.76241917091683    3.01652957143371
H         4.78743250301197    3.32109476740779    1.31537563627666
H         4.92851049832141    5.05018361388540    0.96204071572666
H         4.09565991473130    4.52148484737118    2.41879787980721
H         7.65606242637442    3.69710842386587    0.13301668328963
H         7.64972569382764    2.45916756537697   -1.13045561848590
H         8.96539274402472    2.51101510767061    0.03833740007609
H         6.48471098226328   -2.58817306733721    1.23671056417500
H         6.15128488793836   -1.97988201916436   -0.38652473215759
H         4.84464162646188   -2.12279464069553    0.79868772874436
H         4.79110579159216    0.88470270101319    4.61605111431764
H         5.04385221608134    2.58923183484630    4.22085434973972
H         6.35145441392902    1.64335245424055    4.93641616190825

