18
CSD_code = NIPZOD | q = 0 | S = 0 | Stoichiometry = C7H4FeO6 | MND = 6
Fe       -0.19618560415965    1.46165511315215    7.85424700634141
C        -0.76797305900198   -0.13816429529007    7.32544538207313
O        -1.12518471749640   -1.15178707626226    6.93828381476134
O        -1.81443399432508    3.76635921035466    9.81458767152075
O         0.42024641927519    3.43079833520742    5.78042285485307
O         2.48981580356903    0.38392826473508    7.58208267228803
O        -2.97542143918396    2.27336333216288    7.54488905248487
C        -0.60566712365271    3.74307681123066    9.81771944133625
C         0.23495515052468    2.53915515839377    9.65340721827214
H         1.28998023306558    2.73676354343072    9.83158226563230
C         1.44629742660660    0.82217966858948    7.73071841150868
C        -0.31388388032373    1.27983539410264    9.95894508312855
H        -1.33337354096698    1.25583569442644   10.33175614377831
H         0.32837091836186    0.52263667354430   10.39530281010740
C        -1.89058366264950    1.99513054761845    7.73694100057673
C         0.19393566936120    2.67536832539760    6.60584746315099
O         0.12878159075952    4.84998558224388   10.01291289097232
H        -0.45047618976368    5.61867971696222   10.13490881721381

