58
CSD_code = NIPZER | q = 1 | S = 0 | Stoichiometry = C16H37IrOP3(1+) | MND = 6
Ir        2.69435568423085   11.83116481764541    2.67578449474181
P         5.20750021545259   11.87955585755148    2.39201200360654
P         2.69113838354186   13.55839783498321    4.33870150816085
P         2.72683781716083    9.95394014889124    4.31003691903114
C         2.43251876284496   13.36544821331856    1.21804299054470
C         1.03206260948478   13.89372729342861    1.31639136678335
C         0.14735015352553   13.19255021537306    2.00945420200929
C         0.54761822372017   11.92336079775644    2.69952562763221
C         2.60111176802551   10.66165238342914    1.23096258539873
C         0.72618214121799   15.15193948660497    0.56430187603078
C        -0.23662035964700   10.75962451488971    2.09555992418440
O         2.58558687645366    9.98311905477643    0.31238199427337
C         5.88786792346379   10.27889053683709    1.80367393785877
C         5.80434299047080   12.96772650815876    1.04414412257208
C         6.43738393308277   12.29210001135993    3.69626474803483
C         3.49868294313006   15.13584744595866    3.87116681653506
C         1.11634389352860   14.21857262749576    4.99865858156861
C         3.54694862851011   13.21890208651915    5.92859295156555
C         2.60759256965023    8.31095265525988    3.50373407492840
C         1.34077785393624    9.83435834234852    5.50413738255512
C         4.15176595315423    9.62204812067363    5.42436257638446
H         2.58261774581002   13.00773196948406    0.19194881250497
H         3.15173707842440   14.17698110842872    1.35603764868109
H        -0.89778439760004   13.46892755880187    2.06420697434080
H         0.26400995535137   11.98132151054975    3.75903898288051
H        -0.31332709509780   15.43920285823870    0.69363004227897
H         1.36074946595577   15.97064479767541    0.90311135711945
H         0.91699643992236   15.00832232589028   -0.49828562507315
H        -1.30240623020923   10.91841725230105    2.26743226622513
H        -0.08506638638331   10.69574241615167    1.02108436071648
H         0.03326797910913    9.80732417694614    2.54779230999522
H         6.95980336158248   10.36781896545415    1.62987617867280
H         5.70930861685893    9.49511132878759    2.53695843381431
H         5.39771972452855   10.00062606396443    0.87251352153254
H         6.86805764551839   12.80061855883351    0.87741791784354
H         5.25600842782350   12.74418771759332    0.13147737311654
H         5.64297421674101   14.01279554248922    1.29927985110102
H         7.44381875583300   12.20041643055391    3.28891661344600
H         6.28796510426968   13.31403805895896    4.03952553853659
H         6.33520147340941   11.61559994138640    4.54207730741170
H         3.59820310854141   15.77258895460170    4.74949091082937
H         4.48409376736995   14.95314096301344    3.44716733045784
H         2.88365154399536   15.64566218390248    3.13299726210375
H         1.33041302468847   15.05977331890516    5.65723115546347
H         0.48644166121276   14.55054018138421    4.17642830539630
H         0.58754375590729   13.45277032493131    5.56240982477819
H         3.52650720645188   14.11004079325934    6.55498809972616
H         3.03699519149283   12.41243377413554    6.45207098900766
H         4.58025300342448   12.93075302638779    5.75379801799724
H         2.56286193759338    7.52479984618621    4.25697527303859
H         1.71514791741087    8.26398102212394    2.88370721368520
H         3.47485160036928    8.14838275928429    2.86616982071021
H         1.44666216669385    8.93115678757779    6.10430927460905
H         1.33079775678745   10.70183891262911    6.16117322468754
H         0.39754977529870    9.79689045664453    4.96405363143783
H         3.96774109293842    8.70619222950736    5.98520456066338
H         5.05727717863604    9.49717705611073    4.83411082585815
H         4.29810746440101   10.44146987366504    6.12298373000394

