59
CSD_code = NIPZIY | q = 0 | S = 0 | Stoichiometry = C26H28ClIrN2O | MND = 8
Ir        1.35819209052917    8.51994918400898    6.13469418030278
Cl        3.61992481541353    7.98477714985192    5.83985862600373
O         1.02364411375191    8.08345491851054    4.11100386451769
N         1.17050241495498   10.88752226298175    4.31222473157012
N         2.60838762496020   11.29764907947002    5.86940130835710
C         1.76315910295184   10.35498651838033    5.40572933337168
C         2.55921884224963   12.40340887979887    5.06879803758653
H         3.16674298485042   13.26591428400403    5.24819715652823
C         1.65980970509073   12.14791651220373    4.09055134672533
H         1.36051875016284   12.74539988497638    3.25572725486327
C         0.06283308703705    9.07686210595262    7.89132351916363
C         1.13207001231025    8.23496122206926    8.31869104926164
C         0.94034919111504    6.93011282592199    7.70954836264212
C        -0.18598965037402    6.99834616713049    6.87943473395620
C        -0.69970842654567    8.34771679664148    6.92805767058457
C        -1.98078275320021    8.78435670099298    6.29431298979549
H        -2.03436377463425    9.86841324535058    6.22047637227695
H        -2.83007322239658    8.44011376780001    6.88825228303011
H        -2.07697536675548    8.36959731060614    5.29235792827808
C        -0.81158759800246    5.90493409068002    6.07840862353030
H        -0.74018947144886    6.12584393654085    5.01323130812458
H        -1.86731398898115    5.80970520259988    6.33457457505874
H        -0.31918936033099    4.95324931684269    6.26062595502059
C         1.76852540893226    5.73467592852477    8.05212214061993
H         1.48166794728416    4.87279709895026    7.45539445249594
H         1.64751631937269    5.48722437344708    9.10813431917120
H         2.82357463602582    5.93689537116996    7.87005410636649
C         2.09257789071742    8.49088820002255    9.43734648183972
H         3.07710416052123    8.09637437293517    9.19412002702159
H         1.74405927943480    7.99325809452646   10.34423436961670
H         2.18645146698463    9.55351679752062    9.64655231506334
C        -0.27192906040664   10.43513071848190    8.42176665005021
H         0.60508320712914   10.92210911753041    8.84090316097249
H        -1.01999768322544   10.34352512830007    9.21122602794070
H        -0.68265088913728   11.07372824647879    7.64219861287916
C         3.46957781386425   11.18864954514356    7.02874195949856
H         3.49059233883995   10.13496434321379    7.31728268106525
H         3.04836321538493   11.79094005951841    7.84138218469782
C         4.86324759728588   11.65549326827313    6.69707368213978
C         5.33325429096085   12.88406211121308    7.13951017261264
H         4.70668757866182   13.51171646848669    7.75893579405351
C         6.60743650844644   13.30674500852891    6.80019849166531
H         6.96931636284012   14.26160333003407    7.15284817207660
C         7.41451893568190   12.50573327116581    6.01127970241855
H         8.40738389337802   12.83745366340062    5.74534426012574
C         6.94851991261720   11.27788934967068    5.56925447556604
H         7.57803196939205   10.64962120645523    4.95789484026659
C         5.67795566438630   10.85063825782411    5.90990491529193
H         5.30807006457546    9.88907965964572    5.58578508549025
C         0.21022322662507    8.82895040917290    3.43365102392151
C        -0.71932736467335    8.23825807362973    2.55272058474938
H        -0.70287390721928    7.16260978426731    2.46284077162274
C        -1.60622840420434    8.99563882821669    1.82416930401735
H        -2.30575484014284    8.50706516462030    1.16164611993333
C        -1.62415021205678   10.37799160820025    1.94927539517753
H        -2.33860416803775   10.96932762556564    1.39842527208652
C        -0.71265180107004   10.99399976131492    2.78479042347618
H        -0.72604631993781   12.06916791820453    2.88904497289550
C         0.21129583806400   10.24598647302769    3.49906584057147

