43
CSD_code = NIQBIA | q = 0 | S = 0 | Stoichiometry = C22H15O4PRu | MND = 5
Ru        6.14634220235749    1.45655527838967    2.96476132809086
P         7.47596150349799    2.96579017373823    1.78964632086893
O         4.50972471189858    1.11660519769368    0.39976331344178
O         5.47898442208491    3.76776666713322    4.85913719064013
O         8.69966917722356   -0.17614810117264    3.39639928382560
O         4.44775046873694   -0.50921628180302    4.49623352531135
C         5.10452253316011    1.23041885336343    1.37819987525928
C         5.71854545020189    2.88023439896850    4.16714335095550
C         7.72199997518095    0.41166540487554    3.24452554371905
C         5.09355994959710    0.23919173238588    3.91278180862247
C         6.96730247182351    4.71718627140198    1.86518878181819
C         7.84930027290562    5.75820557744548    2.13140602527103
H         8.89531205179772    5.55235815411947    2.30937709224708
C         7.38259075250411    7.06123486417795    2.17252922630070
H         8.06923873359094    7.86699042074576    2.38678883772267
C         6.04472347938213    7.33286071045273    1.94229910118513
H         5.68636239895630    8.35074748253660    1.97918426566596
C         5.16380180120804    6.29781297380626    1.66781685339118
H         4.11991619796970    6.50734682527202    1.48759925480121
C         5.62147746509084    4.99512212402390    1.63343988022382
H         4.93868924617328    4.17645028743769    1.43151294264090
C         9.22510436759323    3.05940112334515    2.30240844692642
C        10.28703988128128    3.00490844112814    1.40734810369953
H        10.10041927085509    2.90572256950724    0.34747555672603
C        11.58756984938752    3.07204776569679    1.87837497074952
H        12.41046361674185    3.02208404388957    1.18056459582217
C        11.83496062915328    3.19996333803863    3.23435079382326
H        12.85131837558152    3.24834958526553    3.59566220283279
C        10.77783103132328    3.26120323512067    4.12976870461227
H        10.96835964792049    3.36025367912568    5.18807789520516
C         9.47870404875703    3.18614256238848    3.66726441226981
H         8.64445949667322    3.22017436312366    4.36009607018344
C         7.62899382088095    2.70551938059191   -0.01066618224773
C         7.82274944094124    1.39944773474062   -0.45564241980381
H         7.85777989773555    0.59229027098956    0.26874268323422
C         7.96199200934841    1.13714922601202   -1.80489787056352
H         8.11126566830947    0.12282156548699   -2.14393994420050
C         7.90172254701408    2.17596648458907   -2.72103393015197
H         8.00107817665579    1.97106489342450   -3.77651753604545
C         7.71094657659411    3.47565226920810   -2.28310943324480
H         7.66384970858454    4.28549891827330   -2.99624492359650
C         7.57816727084963    3.74599571918981   -0.93188347811044
H         7.43154940248648    4.76256381587534   -0.59543252012530

