92
CSD_code = NIQBAT | q = 0 | S = 0 | Stoichiometry = C39H48ClIrN2O | MND = 8
Ir        4.94577170881697    7.20694437192249    7.90220467175168
Cl        6.29415678444229    8.21972204460806    9.53238048219195
N         6.54407013734878    4.73752399940097    7.36010366512769
C         5.88945719178427    5.47484688106705    8.28767126398228
C         3.42794081901594    8.33356971233238    6.60175619876637
C         2.93853951069329    7.62028844300990    8.74462877426073
N         5.98196432657849    4.79243461948524    9.44414971851926
C         6.68979172509507    5.07614611759236    5.99919931132093
C         3.20593734607518    6.90690132014699    6.57200047246837
C         3.29328448802609    8.76751835477759    7.92676992354058
C         6.66980749568235    6.46955848426434    5.64125114344803
C         2.80805282816205    6.49350484456199    7.88250988930462
C         6.87144350249560    6.77646634682047    4.29955720644471
H         6.89826881761499    7.81881225065656    4.01777282812539
C         7.04971387189207    3.60675353580740    7.94648135945436
H         7.63819321124060    2.89186430515466    7.41157614865994
C         5.98613599228317    4.45103899444855   11.87133343385021
C         6.83929930156241    4.10041980038436    5.05121906243490
H         6.81172873300456    3.05682676132765    5.33195260950853
C         7.74246028193740    4.14079420883579   13.47865102964163
H         8.70999970716813    4.41670731913132   13.87019833069049
C         3.94888065093505    2.91831095458181   11.90629046098909
H         3.90753558459022    3.14240279733089   10.83591651031820
C         6.69268328139288    3.64317169260476    9.25207709669492
H         6.89028587563750    2.95412792739538   10.04671319071603
C         2.24866319649665    5.14916149065279    8.22981230065070
H         2.81953990113903    4.34779389713442    7.76353411462326
H         1.22047784425278    5.08085923793557    7.87003416023713
H         2.24065541112642    4.98824576709289    9.30495461366144
C         5.40441211937661    5.21380577623067   10.70837788925317
H         4.32349507433786    5.08157054265306   10.65231214407979
H         5.59092926970559    6.28655349456389   10.81849674671174
C         5.28133965996641    3.38989130257267   12.45625965346857
C         7.02564252330401    4.42155642840360    3.69349865313106
C         3.35301711216605   10.16442156213300    8.45348477270210
H         3.99316711433612   10.21213079798394    9.33342523402654
H         2.35442468919818   10.49903859816546    8.74115366143293
H         3.74919114267979   10.84957522217117    7.70843913339380
C         5.80520955049491    2.76783590094312   13.57910476584746
H         5.24842943379118    1.97538673465280   14.05134399655587
C         7.03130681781831    3.13630448368477   14.11072813741350
C         2.81043743899326    3.66010862693589   12.61439225212862
H         2.81329891881651    3.41963287066612   13.67497695559197
H         1.84748669064865    3.37066380898189   12.19750284578793
H         2.92671586792425    4.73759447221473   12.51676238431316
C         7.24490373658106    4.80851027226813   12.36707462336140
C         7.18346003540448    3.43288737871622    2.70278685767641
H         7.15495995865505    2.39270894713859    2.99695161070965
C         8.10020485287168    5.88401173493382   11.73555980092805
H         7.59229853919063    6.33654220435180   10.88489993661106
C         7.06054926416698    5.79276407098298    3.32112568760696
C         3.11003555797949    6.09273002687054    5.32226179455030
H         3.89335909377222    6.36915612575676    4.61818051555173
H         2.14520491399980    6.25947462627135    4.83860501972528
H         3.20354488736847    5.03031167196987    5.53714422087981
C         8.37624372257178    7.01056850610086   12.73342179529629
H         7.43888318550286    7.41151120444642   13.11041725745178
H         8.91084815471560    7.81393022085880   12.23453972972566
H         8.97186554350060    6.66561005995612   13.57530940164269
C         7.58509351054584    2.45764853145100   15.33932011496634
H         8.55837590908949    2.90664001721367   15.56649693043800
C         9.40914852572694    5.28437475918755   11.21330655897298
H        10.01299738478822    4.87935023918723   12.02208320068851
H         9.98540954220000    6.05421083327562   10.70666324136424
H         9.20617637694957    4.48535552528040   10.50234130505218
C         3.74908739752987    1.40599662755374   12.03262670449566
H         4.62775720933557    0.87179870871237   11.67793563357802
H         2.89461665809641    1.09920065248860   11.43253418040606
H         3.55213597015733    1.11139896062368   13.05985632142908
C         7.40958981175496    5.13342114896514    1.02201671543320
H         7.56119659723869    5.39133134447114   -0.01625042934138
C         7.25818446340794    6.11513191464548    1.95962716843120
H         7.28709603536654    7.15704696346537    1.67448516630647
C         7.37185425907312    3.77969659457624    1.39389923715765
H         7.49434841607234    3.01764764306204    0.63829836709656
O         6.50873692097425    7.40731194417391    6.52192717926213
C         7.79828701178470    0.96287184356741   15.09174913439110
H         6.85296545594919    0.46385238332506   14.89338156518459
H         8.25401229156211    0.49830168656153   15.96345172828542
H         8.45298906776543    0.81041334149280   14.23632614737370
C         6.66592991624803    2.68419166320107   16.54129513231297
H         6.51437055333388    3.74885254072287   16.70488863695667
H         7.10542619814937    2.25417214335054   17.43869813634705
H         5.69581456403990    2.22085826990457   16.37929544022889
C         3.72208523785011    9.14856628363379    5.38659646585534
H         3.83104408712261   10.20090439387451    5.63562249952488
H         2.91512110666324    9.04078537001352    4.66045026146167
H         4.64581920983037    8.81157162392180    4.91634265607245
C         2.50322248698976    7.73217317515548   10.17168041107734
H         2.33557156215074    6.75434195503215   10.61615012152164
H         1.57268913995637    8.29946534490878   10.23050946094075
H         3.25504272597273    8.25541141902341   10.75985715778931

