21
CSD_code = NIQCAT | q = 0 | S = 0 | Stoichiometry = C8H6FeO6 | MND = 6
Fe       -0.64015343292025    4.19502015856778    4.14907317725400
O        -3.25181958095948    3.04023319348401    4.69099357819686
O         0.60980581486704    2.13662616180790    5.80988510424269
O         1.93526478744617    5.55267696294661    4.21939993225630
C         0.94725565065015    5.00113473686550    4.11138187350967
C         0.11630623579592    2.92165005061093    5.14319787122976
C        -2.22914278246314    3.47966194687833    4.43724573523796
O        -1.62743750093294    6.57029091464772    5.53298474868227
C        -0.99845716704129    4.63828729215373    2.10982359877996
H        -0.34351977058678    5.41105268660342    1.71906848699864
H        -2.04051326045188    4.77207559310821    1.84063139798909
C        -0.48210007174151    3.33329912189067    2.19681289684932
C        -1.24677735915171    5.65603578647270    4.96273356292834
O         1.80045697979539    3.92627667168784    1.78276790423575
C         2.42836918338335    1.48219976082268    1.00157299266651
H         2.72305004226928    2.08489534056042    0.14020389873603
H         2.40314617059557    0.42769454277323    0.74009971513536
H         3.13660570897083    1.66075610545613    1.81339266525499
C         0.92349330665586    3.09289017877454    1.79578246648491
H        -1.12515896822728    2.47478585915191    2.01388467920393
O         1.11172601404639    1.82105693473562    1.41386371412783

