81
CSD_code = NIQCUN | q = 0 | S = 0 | Stoichiometry = C28H48NiO2P2 | MND = 4
Ni       -2.43043859344448    5.44682855490065    0.00000602437307
P        -0.76390532994280    4.50803391484022    1.03995477936282
O        -1.27968220301790    5.59735850018621   -1.46854883359779
C         0.44773398506978    4.56255481372876   -0.26996042990412
H         1.44638607679968    4.16505522568807   -0.19877869758526
C        -0.06774700810185    5.15742873134858   -1.36973635627961
H         0.53801796744669    5.30125703329331   -2.27127821677049
C        -0.17595656051432    5.66389661685123    2.37124491213384
H        -0.86334707294632    5.55772226445403    3.21803180439505
C        -0.32723841769364    7.07379138625064    1.79630608495416
H         0.31062168563431    7.16876257989119    0.91160099637563
H        -1.37339621792037    7.21860791368193    1.47678970962492
C         0.07189481145226    8.12206693790245    2.82767037402573
H        -0.59994182603470    8.06099618306804    3.68700207225967
H        -0.01956374230583    9.12330726710010    2.40113928168371
C         1.50795740919350    7.88040840686692    3.28683798320313
H         2.18271023783864    7.99682131262024    2.43552484420370
H         1.78842148832759    8.62022235326506    4.03977501200625
C         1.65950243669805    6.47420222558584    3.86098003809332
H         2.69335155601466    6.31010426941105    4.17333012291540
H         1.02365631571103    6.37453107182287    4.74411802162448
C         1.25831670503350    5.42187027164790    2.82821151913144
H         1.35895400228290    4.42332746546222    3.25977936192498
H         1.92632002547957    5.48749356759629    1.96623316617323
C        -0.69535816869601    2.79885003095890    1.74807599787995
H         0.35310224534806    2.52651214180565    1.92369606486102
C        -1.49731955442534    2.70904574335010    3.04333837537002
H        -1.02798204673478    3.31654642635930    3.82006171076300
H        -2.49778085836133    3.10926006981796    2.85938915798251
C        -1.59443410063313    1.26333790856913    3.52486868393817
H        -0.59350970760487    0.89308408732361    3.76315332564944
H        -2.19213196797142    1.21953298532781    4.43792336991872
C        -2.21606161970413    0.37520346795485    2.45218058995837
H        -3.23195058417631    0.71780632140376    2.24404373687215
H        -2.27409326792275   -0.65575747702411    2.80812276041550
C        -1.38967475895122    0.44184649655232    1.17187481994005
H        -1.84211660645190   -0.18431505954458    0.39988022223819
H        -0.38481376902960    0.05876215635816    1.36726607604613
C        -1.29892701668427    1.88224790551572    0.68214014057169
H        -0.69927490230378    1.93762101066846   -0.23092554655072
H        -2.30346614085934    2.25144194470890    0.44419788334261
P        -4.09693763509336    6.38570118510990   -1.03995949378896
O        -3.58130439510878    5.29599911539750    1.46842717518931
C        -5.30878908766755    6.33057006861208    0.26973321395637
H        -6.30743578245037    6.72810078847260    0.19855582493265
C        -4.79340666064829    5.73546670622650    1.36940796028926
H        -5.39907776264849    5.59198218318709    2.27106766158909
C        -4.68462604094826    5.23018890563158   -2.37165168359920
H        -3.99702068417184    5.33656115163419   -3.21823245332326
C        -4.53351110160166    3.82015375812873   -1.79701154513312
H        -5.17163064171157    3.72496363585616   -0.91251566976516
H        -3.48744897219886    3.67525354454279   -1.47722722787687
C        -4.93234228522855    2.77212833733127   -2.82874757633827
H        -4.26025922022223    2.83341416079069   -3.68787252296262
H        -4.84099859074016    1.77078142743315   -2.40243865961200
C        -6.36827719189541    3.01388906417279   -3.28826139683005
H        -7.04327537002470    2.89724103040476   -2.43717279312718
H        -6.64851222444278    2.27426979580720   -4.04147289343049
C        -6.51968001183856    4.42023955978192   -3.86208690039717
H        -7.55344740960743    4.58440367438976   -4.17468021965660
H        -5.88359454617796    4.52014362794902   -4.74502767626478
C        -6.11878477606184    5.47231665712554   -2.82894144106430
H        -6.21931350891820    6.47096010880288   -3.26029561137804
H        -6.78702357485414    5.40647570913030   -1.96716257323822
C        -4.16561489985406    8.09508946692516   -1.74760374870660
H        -5.21408240004242    8.36727417452769   -1.92339025113024
C        -3.36338335674320    8.18541504671170   -3.04266662086922
H        -3.83241991640367    7.57802540267646   -3.81966117494484
H        -2.36288335458205    7.78535432197934   -2.85860520109556
C        -3.26645509138408    9.63127916628134   -3.52377365900164
H        -4.26740013448126   10.00139040035861   -3.76218913733108
H        -2.66855199352653    9.67545982420580   -4.43667409730550
C        -2.64526158039154   10.51925262374334   -2.45070075215801
H        -1.62934820328138   10.17680843132345   -2.24242298583850
H        -2.58736474471373   11.55032678430148   -2.80634623085226
C        -3.47193006541750   10.45207327423162   -1.17060431368534
H        -3.01979993761362   11.07811764521675   -0.39833587048639
H        -4.47682797125797   10.83499370304659   -1.36612188363143
C        -3.56247978848246    9.01151948026407   -0.68127941990101
H        -4.16231930757387    8.95576156936985    0.23164274750793
H        -2.55791468589323    8.64247946134622   -0.44322184226744

