55
CSD_code = NIQCOH | q = 1 | S = 0 | Stoichiometry = C18H22N6O8Y(1+) | MND = 10
C         2.19381637740277   12.52797051011091    3.90552501485003
H         1.35729217313847   12.13619260325125    3.31141456963202
H         2.38152984116490   13.57424972065647    3.62996234512334
C         1.85578140637819   12.44978017598612    5.38468203216526
H         2.70523270239097   12.81075507228018    5.97996405701937
H         0.97359400795257   13.07073875781814    5.58971243336921
C         3.08153108883859    5.96351917479579    4.00603931497411
H         2.71253595074382    5.97907563295197    5.02383812278127
C         3.04814149133974    4.79215718944183    3.25939485918859
H         2.66018126168116    3.88495540281838    3.69361272038645
C         3.51281996286974    4.81782822079787    1.95424366187710
H         3.49884403488083    3.92878691300618    1.34283269524519
C         3.99210432572201    6.01546925511698    1.44841032205142
H         4.35964287896779    6.08307706323816    0.43626818730568
C         3.98246452814433    7.14445856031372    2.26511680771169
C         4.44991157102022    8.43489987060732    1.76600231385156
H         4.87787311834444    8.45523442359901    0.75900668679381
C         4.79475818525564   10.74442138422048    2.01178790164149
H         5.04931452353272   10.73216186767716    0.94376506402088
H         5.68403073068445   11.01217306328974    2.59406987402760
C         3.69752136665130   11.77587658535011    2.27501864994430
H         4.04974549064258   12.77882523439083    1.99857829169652
H         2.81044593909235   11.52294739807250    1.67865692325123
C         1.28161357491254   10.97345643163983    7.10983017667639
H         0.31415567267837   11.44705491342172    7.32464369478920
H         2.06843004201637   11.46807952289968    7.69532477492308
C         1.23249605452472    9.49089871994152    7.47975373529226
H         1.03055101922858    9.37899574459458    8.55322450195897
H         0.43346813584470    9.00601793656453    6.90707412421662
C         3.10802973110912    8.13626971255227    7.88087671521607
H         2.76453892573646    7.92239861249434    8.89767836519113
C         4.36650573045797    7.52590965336343    7.46061335706060
C         5.14000453431381    6.79135807484807    8.35719032842450
H         4.80713719295870    6.65631657038004    9.37456411163246
C         6.34066980622055    6.25329751578248    7.92266393324376
H         6.96582575364933    5.68774512815362    8.59626744641329
C         6.71965509417103    6.46378855096751    6.60658215670570
H         7.64774533604913    6.06948326531741    6.22547056684970
C         5.88415037869263    7.20326484750839    5.77848284921568
H         6.15926537605797    7.39709414903714    4.74938844509568
N         3.53402245000777    7.11746566702689    3.53166406169909
N         4.34427877642138    9.46793925033504    2.48913515307566
N         2.46903558503418    8.88056883515718    7.08154238393822
N         4.73434920612349    7.72757475632634    6.18390894761955
N         5.35694055910721   10.86096812158956    5.62907974749955
N         0.86123451656219    8.90646517904074    3.87266555982714
O         3.35920699447280   11.74604179609595    3.65742129952277
O         1.58141179026614   11.09290249760586    5.72341195264733
O         4.25303247355542   10.82049463177697    6.20820211602949
O         5.56804093588619    9.97366497454752    4.78140332002662
O         1.68479608531217    9.62492730473783    3.27151155600492
O         1.31307334283390    8.20271045495717    4.79517903381450
O         6.16672241455819   11.69468154219149    5.88338481519722
O        -0.28949144649698    8.88705883642711    3.57108549234033
Y         3.32979100089600    9.35455272292706    4.77747242894418

