26
CSD_code = NIQGAV | q = 0 | S = 0 | Stoichiometry = C7H12Cl4FeSi2 | MND = 10
Fe        5.19372473128489    2.74527059655914    2.63781663602915
Cl        6.58979940525470    5.81782276527229    3.04974551109258
Cl        7.20029097048792    3.48893071794008    5.27346970715400
Cl        4.92486910401324    1.93962991594495   -0.66243962106576
Cl        5.71353878087440   -0.43235922744761    1.42274386162741
Si        6.96903392394809    3.85119107479696    3.30474334595072
Si        5.99044574354836    1.51782392648821    0.99889038430588
C         3.82221909080982    1.52505891795441    3.62542129301101
C         4.20256758901971    2.60517306944018    4.44980768315780
C         4.07843691118316    3.92693914728378    4.01446925503630
C         3.69651252416253    4.17498680587126    2.69340223166009
C         3.31273437308211    3.10964435527400    1.86367117832053
C         3.31501158739081    1.79510958070293    2.34814183263853
C         3.97718847627717    0.13535236079818    4.14316955563370
H         8.29573190425657    3.63932907941844    2.72110041542994
H         7.39549747479072    1.59843131836909    0.58895963865658
H         6.23019187588461    1.87138223066667    3.09330422644059
H         5.79103286565668    3.50398994715566    1.58056442531317
H         4.57770271215617    2.39716935235290    5.43931790456011
H         4.32743345355358    4.74362233540435    4.67401969123268
H         3.68451894174891    5.18248717797749    2.31214212141144
H         3.00271480997711    3.30989787604747    0.85153250471647
H         2.97798349944958    0.98590240758905    1.71799992836265
H         3.31995376001557   -0.03081468280281    4.99621936606253
H         3.75906879006530   -0.60146907547363    3.37696086102183
H         5.00429670113501   -0.00410197360987    4.47332606238022

