77
CSD_code = NIQGAY | q = 0 | S = 0 | Stoichiometry = C32H33BN6O2Se2W | MND = 6
W         4.55904048068786    6.53431184075370   12.01345765081516
Se        6.99354774043582    9.43264741531803    9.61641378955555
Se        2.48275494710553   10.02088559984454   10.53877084706278
O         6.81950606119516    6.46508185286155    9.86777849271565
O         6.92543688592813    7.05521357361701   13.99460695765352
N         4.45096123819691    4.45257827244835   12.76638470485010
N         3.27498496342606    3.91340309384084   13.13478439395469
N         3.01659442107473    6.87074628079237   13.49342851896573
N         2.03610687212028    5.98712253871265   13.74247699214883
N         2.85024419514343    5.80488232973347   10.86140876579936
N         1.88011624683291    5.07561223488188   11.44714614883894
C         4.86052160829410    8.21077324927180   11.13522026472730
C         5.18065166322830    9.28983922674097   10.35604184955369
C         4.27527946482258   10.24688980497133   10.01069685231052
H         4.49924782842890   11.06125098135931    9.33525297454782
C         5.95345647909576    6.33860684476997   10.63028031231219
C         6.03503197799707    6.90823351071746   13.27232717527898
C         5.40547365806620    3.55367406353126   13.00104507872420
C         4.82472359103110    2.40396331530570   13.54126342157481
H         5.32342357800795    1.50380566212692   13.83790545130694
C         3.46844136048899    2.66997204692648   13.61185575584204
C         6.84397231620315    3.79836562531391   12.71076237025872
H         6.95925342582666    4.34750580894826   11.77552988097654
H         7.37086517333744    2.84955848346224   12.63981959147608
H         7.30247000214171    4.38640432478797   13.50629826975757
C         2.37948647661789    1.79060446338740   14.11023360912274
H         1.84852264822792    2.26325547218521   14.93487886961798
H         2.80273398162550    0.85146642316995   14.45626083206228
H         1.65941355180234    1.58210688227261   13.32052571290816
C         2.81793192824426    7.93519177148899   14.26955881175173
C         1.67571739720508    7.72371981964899   15.04575919802612
H         1.25035988716284    8.38912424532763   15.76922147302438
C         1.20572166271569    6.47340843470127   14.68470294270031
C         3.70876603482287    9.12406302708073   14.23287482294169
H         4.73759628188058    8.84282960932684   14.46229524939107
H         3.36890888661576    9.86673402193793   14.95021599492854
H         3.70108740999996    9.55974483733336   13.23072162018757
C         0.01963109141390    5.74279893705222   15.20171801407774
H        -0.69738021558084    5.55691504631093   14.40351979209212
H        -0.46214128774124    6.33508980353715   15.97491024334773
H         0.31118657309622    4.78228197287766   15.62355025552282
C         2.52138269915060    5.96174416762999    9.58032103367024
C         1.30347517466792    5.32165922442220    9.33797578180129
H         0.77334528792057    5.26934866044562    8.40890848466212
C         0.92623430806399    4.76842631283712   10.54692021370068
C         3.35366248827489    6.71665714627650    8.60895830492134
H         3.32622265157449    7.78284430552917    8.83883524414869
H         2.97243994310519    6.56805695793853    7.60178946116602
H         4.39249297097698    6.39132014248921    8.65241821697563
C        -0.28996096677756    3.97289112131222   10.85777170775822
H        -0.02310880967530    2.97683756697884   11.20748700351586
H        -0.89753801110798    3.87878910730343    9.96176115949543
H        -0.88049739000072    4.45694330096521   11.63391460737885
C         1.83608145558385   11.79545507464508   10.14585201327194
C         0.52457410816883   11.94505417308355    9.71277626938368
H        -0.09903204764444   11.06957615411726    9.59240962090238
C         0.03255287311302   13.20595662390781    9.43219067945305
H        -0.98572083703657   13.32020034117834    9.09038551341220
C         0.84489887906186   14.31841791140258    9.58085859310560
H         0.46156274412347   15.30211643610131    9.35476710051713
C         2.14792829646030   14.16737001491275   10.02551875464972
H         2.78046767284310   15.03371030221196   10.15319228991701
C         2.64448239595465   12.91011659682975   10.31788882544160
H         3.65495607595152   12.79650506992720   10.68444693793656
C         7.93966608173618    9.16001891958916   11.26373443963441
C         9.10240190080956    8.40477153812557   11.26422071682808
H         9.43390183703036    7.93464516908572   10.34961691629747
C         9.81651422504350    8.25341101988923   12.43870294052597
H        10.71844611145582    7.65856723198927   12.44364573271061
C         9.37700158647755    8.85766372215005   13.60430048991102
H         9.93562029619394    8.73664194365623   14.52042603318861
C         8.21609836512594    9.61346198331720   13.59646363380165
H         7.87058923757572   10.08505652040365   14.50508014245342
C         7.49515806483146    9.77022711410775   12.42809403949307
H         6.58979882286449   10.36144342522322   12.41872892340761
B         1.95967191433517    4.68547899085686   12.93287522926653
H         1.03218110623634    4.03465296080140   13.25615899278749

