77
CSD_code = NIQJAZ | q = 0 | S = 0 | Stoichiometry = C32H34NiO10 | MND = 6
Ni        2.42432228141595   -1.05875390236942   10.72310281498702
O         1.39272312553576   -1.94866573188530   12.51519941380270
H         0.79741111575764   -2.57032751439478   12.08151949618407
H         2.16171378561120   -2.46821704232369   12.81838517943265
O         1.98328313120084    1.11965835343805   11.22495999332557
H         1.49518913580980    1.28020667211721   10.38675765422603
H         1.33636083323880    1.08279857855299   11.93544518853903
O         0.81860143441945   -1.20531356692338    9.82639360839634
O         0.84946647073197    0.75413764927939    8.78867136137915
O         0.72776296179934   -1.48270168035876    2.25347316324322
C         0.38432047538987   -0.37946470766044    8.97977063677078
C        -0.77312728237835   -0.90262094026813    8.11102215712089
H        -1.25876612142893   -1.71185972670779    8.66360967182139
C        -1.76764318043714    0.20585095936110    7.79910152920251
H        -2.31742957806970    0.47070808783457    8.69990528415643
H        -2.47826422102071   -0.12086087218514    7.04360613556313
H        -1.24503554748791    1.09264815248632    7.44834778717510
C        -0.05591338230499   -1.49122395323894    6.91770382298342
C        -0.05681704304010   -0.88013366595194    5.67395222020431
H        -0.62756731299033    0.01930495708688    5.50796206942097
C         0.65573386828817   -1.43640869497953    4.61335238165875
C         1.36230748959534   -2.62105188594224    4.79990748841870
H         1.89625396986477   -3.04638471469323    3.96364566780582
C         1.38494859208718   -3.21982790819019    6.04571230911801
H         1.94676809190269   -4.12927127943126    6.19815205440374
C         0.68625440815761   -2.65730168761033    7.09826115785306
H         0.72083314610788   -3.11432196442621    8.07658344416918
C         0.64965068146397   -0.81377633566143    3.26497105388060
C         0.54459241799490    0.66781625133251    3.21003134645668
C         1.11349311679225    1.48543049989205    4.18459907386449
H         1.64949788359509    1.04579578420851    5.01286705183306
C         1.01347296947833    2.86048129921254    4.07714877972791
H         1.45851063659801    3.49070751603939    4.83293133876937
C         0.34423802570816    3.43058624568891    3.00584865153046
H         0.26262182527313    4.50503256263920    2.93095636038322
C        -0.21178997658353    2.62325973619538    2.02629175010847
H        -0.72544962513274    3.06700318558676    1.18629542061589
C        -0.10334464200832    1.24919293426669    2.12209355044759
H        -0.52316691312458    0.60375222363806    1.36484621033243
O         3.45217364418140   -0.15952215050893    8.93506730053045
H         4.04737607296209    0.46100879715536    9.37051254579145
H         2.68205819102067    0.36034362770276    8.63506710052814
O         2.86078984692709   -3.23952482682306   10.23187592265179
H         3.34764189633458   -3.39726376865727   11.07148545370458
H         3.50854325429391   -3.20863444084316    9.52188642226385
O         4.03030999911460   -0.91232904043190   11.61950880945229
O         3.99431248681356   -2.86689475641283   12.66625709463803
O         4.11038185939585   -0.59399044759360   19.19214961159511
C         4.46156361650217   -1.73485162002314   12.47091860056791
C         5.61780308882810   -1.20936892547590   13.33980115750249
H         6.10593647582082   -0.40342753666402   12.78458187079889
C         6.60997360886571   -2.31780596137425   13.65918303142385
H         7.16024509939365   -2.58879128078671   12.76049642707481
H         7.32042286833952   -1.98809424398223   14.41353542769905
H         6.08537238305090   -3.20164132991579   14.01441029582408
C         4.89853526202570   -0.61415501215448   14.52867184829056
C         4.89925537638314   -1.21708381836338   15.77638612406290
H         5.47137892617342   -2.11441869607067   15.94889248903086
C         4.18469292583719   -0.65513474632629   16.83264541985452
C         3.47624762771841    0.52702602685523   16.63770925475093
H         2.94061392657370    0.95679631816459   17.47061563389155
C         3.45395365093627    1.11769217535139   15.38803061088337
H         2.89075077739966    2.02515753604536   15.22906369960304
C         4.15470794372456    0.54958086255660   14.33986531981673
H         4.12022810723292    1.00024389353518   13.35860210102906
C         4.19050608494439   -1.26914716967880   18.18496729468988
C         4.29780230506163   -2.75020944831350   18.24926547435016
C         3.73088193312592   -3.57471452072519   17.27935818759623
H         3.19476079799883   -3.14102308989066   16.44803508698106
C         3.83303581863919   -4.94891375995057   17.39531161180800
H         3.38948777791177   -5.58448667399572   16.64313739055878
C         4.50246002664677   -5.51134147259905   18.47054556047494
H         4.58573642601928   -6.58517417821378   18.55210127185936
C         5.05650000072188   -4.69711423908764   19.44550478671559
H         5.57032050971374   -5.13486186415823   20.28854164876140
C         4.94590553687007   -3.32383437414765   19.34120108109358
H         5.36421681821420   -2.67307971703590   20.09472675258792

