34
CSD_code = NIQKOO | q = 0 | S = 0 | Stoichiometry = C15H13Cl2N3Pd | MND = 4
Pd        6.76258726034853    7.89851553865399    9.32340102741707
C         5.07375879764877    6.49753610211022    5.89462102336326
C         4.63949616375565    5.92245053900627    4.70873275845926
H         3.72544987887586    5.34573611305029    4.69393687148406
C         5.36176761473190    6.09554419197669    3.54021242785253
H         5.01021185753406    5.65061113330998    2.62118472553097
C         6.53054886268148    6.83599638003711    3.55161825361825
H         7.09410708929801    6.97156114217046    2.64079589165399
C         6.97290747367842    7.40827465854212    4.73356003266570
H         7.87979832506051    7.99348414319558    4.74557155622476
C         6.24939031848686    7.24164820748877    5.90064744568332
H         6.60043668140960    7.72212844358767    6.82422821077745
C         4.29619851500954    6.30223130557378    7.17730459209404
H         4.12595018243878    7.28009327940626    7.65319657706769
H         3.34744460513100    5.79840567059281    6.98698231859183
C         5.13080470190381    4.15937115580480    8.16383398471302
H         4.45301191990940    3.53624946042563    7.61659454592931
C         6.15767902438938    3.82265928655717    9.01562245738619
H         6.47312145852271    2.83979377724431    9.29653620076588
C         6.70434879591338    5.05269222042898    9.42014126373409
C         7.86596016395628    5.40635434592212   10.20783453309840
C         8.61251666482875    4.48249580985612   10.93577442998346
H         8.30761810275886    3.44857889504275   10.95563603883632
C         9.72868174712672    4.91497800647008   11.62720722378190
H        10.32072354998184    4.21896453126105   12.20144686732311
C        10.07035759710566    6.25975892601562   11.56932664065788
H        10.93420901410482    6.63726009491227   12.09169671275981
C         9.28085549086435    7.12300316317706   10.82925676246336
H         9.50472410716397    8.18167108201295   10.75854753115479
N         5.07423156978371    5.50224701801063    8.09297991594415
N         6.01029148267530    6.04722857550189    8.84900887137357
N         8.20508232065010    6.71208248913398   10.16414097718469
Cl        4.97889176906965    9.11236490402338    8.74730516378476
Cl        7.80523689319962    9.78812940949927    9.83221616664146

