53
CSD_code = NIQMIL | q = 0 | S = 0 | Stoichiometry = C16H30FeN4O2 | MND = 4
Fe        2.28559780530126    4.96217521025527   13.24945997243268
O         3.51656394030085    6.40443935631439   12.76790038162175
O         3.65229132338152    3.60230592051991   13.58160733301175
N         2.53233060220821    5.11827306229894   10.41004787137374
N         2.01242836236990    4.59125303499773   11.45401038587550
C         4.23947035482623    3.37611242243844   14.68354985171977
N         2.87762844907738    4.84355310894990   16.03952658668884
N         2.20191192690857    5.32576631866215   15.06557287494249
C         3.95092723250602    6.66932119252220   11.60535327626829
C         5.06124392064286    7.68756192417036   11.49209464930236
H         5.34264490032733    8.01650970185071   12.48910405467476
H         4.73300418346104    8.54548658545734   10.90801234713149
H         5.92759517891793    7.25194895452939   10.99928676900037
C         3.44615583519396    6.07674482795920   10.43247486959955
C         1.16048806315491    3.43444866494335   11.15170736196214
C         0.26517293866147    3.71206236233044    9.94059854288335
H         0.87944025369094    3.94038898691867    9.07521510369349
H        -0.38206526192366    4.56413527761175   10.13676947902082
H        -0.35079316356039    2.84329862090994    9.72334412116591
C         0.29580666569812    3.14381897145328   12.38373078282983
H        -0.37398068883314    3.98067946829538   12.58275758319520
H         0.92763889013715    2.96378825619276   13.25929474631119
H        -0.30738955589387    2.25603982519509   12.21071262511225
C         2.08406702885085    2.24311967348176   10.87506063131783
H         1.50875257572304    1.33323611385184   10.72250176322462
H         2.75593306525992    2.11263406334254   11.71979849771210
H         2.67990669499336    2.44347196092417    9.98871721189722
C         3.96253035423356    6.47531486821903    9.07692767909992
H         5.02712880557119    6.26345685323061    8.98378194536217
H         3.81171138622505    7.53852141043352    8.89271096081052
H         3.42823926688974    5.90891585698344    8.31950427747575
C         3.84300526197678    3.94640020397815   15.90801419491015
C         1.31834105094367    6.42736977613990   15.46750737559708
C         0.58661076727087    6.09723144247965   16.77186455434055
H        -0.03171294532237    5.21106643249776   16.64438063483717
H        -0.04631470439602    6.93007738477949   17.06724076301401
H         1.30952609463446    5.90105092490507   17.55786629057353
C         2.19012580000382    7.67588330181356   15.64209306456922
H         1.57878299167150    8.54908558302323   15.85639248590597
H         2.75634542230510    7.84238652381570   14.72887600989561
H         2.89044679091225    7.51938371360584   16.45824734496487
C         0.30178448589013    6.65871110363469   14.34347286836002
H        -0.33328463950186    5.78129170492027   14.21966989513356
H         0.81654771224609    6.87412372168355   13.40184546529417
H        -0.33148699246054    7.50813576839692   14.58684111175229
C         4.54603783510032    3.59698839521310   17.19118667990180
H         4.07614197115106    4.13993905644753   18.00601063202708
H         5.59891506751990    3.87339022328436   17.15033826966509
H         4.48435473224621    2.52932369053348   17.39893545743341
C         5.41879319400986    2.43212670251514   14.66329273090816
H         5.59060280025504    2.10253669218120   13.64192540465726
H         5.22595652510014    1.56689430079705   15.29488454021523
H         6.31109944414129    2.93182049809197   15.03407968931172

