57
CSD_code = NIQROU | q = 0 | S = 0 | Stoichiometry = C28H19N3O6Ru | MND = 6
Ru        4.97655348703230   -6.16377284662270    7.95811067746660
O         7.03606292274650   -8.26735921806004    7.39439249183717
O         3.62745986146916   -8.62131712978887    8.13332451336460
O         3.50691509166492   -4.83649366091793    8.56675328695786
O         6.45320669554206   -4.22488599202859    6.58902737325307
O         5.63521295688210   -5.93364235064814    9.91967482867924
O         2.40890614757950   -6.88248509941801    1.49683014557940
N         3.54742092480441   -7.41169507153354    8.42575813496331
N         6.27305798570568   -4.71034929895480    7.72513868008846
N         4.24307678322760   -6.10227162879585    6.05994608683938
C         6.25066111884465   -7.46055540673676    7.57407077550764
C         2.52178837051950   -6.88906547014259    9.12985066686208
C         1.43702048776877   -7.60179813256407    9.75407141478354
C         1.32650812649451   -8.99922608774959    9.74775669469871
C         0.27030498245135   -9.62177658014945   10.37297516171009
C        -0.71106286401219   -8.87779228908534   11.02595484439952
C        -0.62116606272458   -7.50749876300425   11.05215903788015
C         0.44385782651639   -6.84471513023330   10.42499505563921
C         0.53507572489481   -5.42394724885541   10.45984930582709
C         1.54689246410834   -4.74817794648911    9.86511007731131
C         2.58007102716194   -5.45475650779127    9.17483985488785
C         6.37341858492961   -4.90840149376259   10.02298403773996
C         6.81565288903225   -4.44866941369025   11.30386773884092
C         7.62276133239259   -3.36666744660529   11.40223506978471
C         8.06995762067356   -2.64197175604455   10.25898757240655
C         8.91634298867448   -1.53383458748611   10.40300789485508
C         9.35586623198312   -0.83493356849675    9.30449982604133
C         8.95835232819733   -1.23232449355853    8.02984524111109
C         8.12540630507879   -2.31517840032156    7.85813478770501
C         7.66072595577591   -3.04184234206383    8.96248389045959
C         6.78913412265762   -4.18571417926201    8.85101202297041
C         3.87312645602986   -4.91997784640794    5.56317806879429
C         3.34580501813437   -4.76960437904645    4.29428855003513
C         3.17771708332645   -5.89335995241064    3.48803271157398
C         3.54865509891948   -7.12799631798909    4.02721435451087
C         4.07588553214298   -7.19085085876743    5.29947644379593
C         2.62291508520010   -5.85855355568219    2.10116333530415
C         2.35510171997808   -4.49895607910282    1.51504875677456
H         2.07972971216154   -9.58494594376890    9.24623652184010
H         0.20186353895974  -10.69938448753906   10.35695265723573
H        -1.53613459186236   -9.37908926331376   11.50974669741683
H        -1.37262899492540   -6.91898480713725   11.55934534361434
H        -0.24151883640607   -4.88278371047700   10.98296674355860
H         1.60974094659494   -3.67057891468934    9.89361755644990
H         6.48469335045572   -4.99913223857484   12.17126547439067
H         7.95375624802337   -3.02597712157343   12.37361566019796
H         9.22102471490352   -1.23841584540458   11.39693409973483
H        10.00822055549538    0.01699965307825    9.42584680653851
H         9.30752505362598   -0.68630363586345    7.16594699378057
H         7.82651555256214   -2.61415424888965    6.86648055731349
H         4.00698680080335   -4.05622007264220    6.20323333675005
H         3.07385447209037   -3.78341971675909    3.95586510941072
H         3.42060988566339   -8.02039301643633    3.43441340877841
H         4.35870159344812   -8.14068149882337    5.74011786901302
H         1.58578041232049   -3.99085583492982    2.09290002076973
H         3.26004435714929   -3.89593367230368    1.53392145756545
H         2.01398681712316   -4.61092709368441    0.48934427440767

