57
CSD_code = NIQTAK | q = 1 | S = 0 | Stoichiometry = C23H26ClN6Ru(1+) | MND = 6
Ru       12.83109822888939    2.48300080681699   10.75289198472638
Cl       10.71950900719112    1.40021743336469   10.72313247046321
N        13.66672770955535    1.21450223907647    9.40623225468051
C        13.13798930698884    0.04775705815895    9.03696050106672
H        12.08402667533885   -0.08000149967603    9.25297237312916
N        14.81883454522413    3.33166825011423   10.73312142634195
C        13.87758587513106   -0.94097002568476    8.41335864928541
H        13.40373218797013   -1.86554903493237    8.12789236877835
N        13.68243032430371    1.19510882767126   12.01493428152881
C        15.22539528033232   -0.72169275203202    8.17256441396093
H        15.83539095373197   -1.47436789278960    7.69933859676387
C        15.77463589376560    0.49509414639763    8.54916577553520
H        16.81642635548419    0.71079300013308    8.36996166259008
N        11.58591782440250    3.84832352377169   13.31031436213303
C        14.96414437290374    1.44089348760841    9.15586341090023
N        11.12299388445223    4.64452922950010   11.36420672469950
C        15.46049342522794    2.81758042758191    9.51217969762694
H        15.19685155647857    3.48810028412490    8.68505092681493
H        16.55365280480718    2.80965511043943    9.60711144907748
C        14.82331918137450    4.80532663905281   10.74526318617624
H        14.28134696767772    5.12738737094393   11.63972154212769
H        14.25744502799027    5.14513974486015    9.87198837565663
C        16.20313072102783    5.46134663637638   10.73150489707593
H        16.07551270652499    6.54030183187021   10.74394361299727
H        16.76287960552266    5.20456265066723    9.83648875461830
H        16.78806354291888    5.18621225826273   11.60473512220757
C        15.48317204287651    2.79335767873817   11.93153328236463
H        15.23092357401106    3.44723167254113   12.77477833322996
H        16.57449591715695    2.78577705472001   11.81792857333879
C        14.98650262126819    1.41070345078784   12.26244038574338
C        15.79987191112341    0.44614882194831   12.83280850881233
H        16.84350748475600    0.65637155100492   13.00789999827236
C        15.25603731559192   -0.78258341993693   13.17756533151343
H        15.86985124607650   -1.54951661927850   13.62113477005976
C        13.90575558583807   -0.99356823571401   12.93928445670690
H        13.43535034135397   -1.92815039646073   13.19687911558778
C        13.15934672947467    0.01225481781828   12.35498079320288
H        12.10431167812134   -0.11293071897549   12.13992249858891
C        11.89691686935498    3.72002594900760   12.01170288914898
C        10.64318936604358    4.83413041674384   13.48227395194133
H        10.25647193081969    5.09355736068262   14.44622808623805
C        10.34736029506892    5.33871173870819   12.26550261048372
H         9.65766072009476    6.10669169095060   11.98721337089037
C        12.10456137160788    3.02247430352038   14.36721618690633
H        11.97186476538527    1.97098007896816   14.10882790873893
H        11.56623674203132    3.23352912721122   15.28843209172671
H        13.16759732452893    3.21567703291374   14.52582788835330
N        11.97720896554011    3.75572109374785    9.44074833510869
C        11.13733579338461    4.66517428179668    9.97818803866256
C        10.35808197991871    5.51997394149073    9.20959867418058
H         9.69731043784791    6.22777068850459    9.68149935217286
C        10.43367978825633    5.42801040439257    7.83115376126668
H         9.83413404174167    6.07027532402679    7.20711179657802
C        11.28647376213253    4.48400526567368    7.27276329873004
H        11.36485170364725    4.37022815794260    6.20433372797373
C        12.03087091900499    3.67517709421757    8.10859230844588
H        12.69063281072512    2.91987064063005    7.69953085406846

