55
CSD_code = NIQWAN | q = 0 | S = 0 | Stoichiometry = C24H22CrN4O4 | MND = 6
Cr        1.64892277936460   13.36156614744308   11.16130855932413
N         1.01396164145044   14.71960211828109   12.41923127260213
C        -0.11208625067715   15.43673399103981   12.30545389307327
H        -0.65660943323142   15.31439316230160   11.37765208252973
C        -0.58251504550827   16.28036920868056   13.28132024047221
H        -1.50183237354362   16.82370508584983   13.13229923276188
C         0.14370632313529   16.41321086639337   14.47055479218336
H        -0.20447165834002   17.06157432103623   15.25917756827724
C         1.30936030237187   15.69801556751104   14.60287212624380
H         1.89682863329796   15.77550978719939   15.50337741635669
C         1.73483766966489   14.85834236063070   13.56510689764319
C         2.94570903137997   14.08709591651312   13.56965490722189
C         3.87483523461519   14.05667810468602   14.61983916445213
H         3.68857562492064   14.62087075905629   15.51965789474080
C         5.01145791994937   13.29525273249545   14.49726408635993
H         5.73444859265131   13.24555987022943   15.29693097042791
C         5.20787296648747   12.58403615448335   13.30996214503999
H         6.08478435673620   11.97257985428779   13.17202944752432
C         4.25566328564422   12.65649949838078   12.32196327332223
H         4.36350286915786   12.11005312934799   11.39559908087939
N         3.13530031801065   13.37954230261580   12.42742876937627
O         2.64820388890772   12.04742101246853   10.04867121045972
C         2.15092859370324   10.92578940162210    9.70124404445503
O         0.94716669780744   10.70706434634865    9.65404765557143
C         3.16764121734782    9.85286147360166    9.32929917290121
H         3.50537500783556    9.39636204033030   10.25795007392489
H         4.01990333501818   10.29920821555256    8.82317070675424
H         2.70235825976096    9.09575628005907    8.70527669096814
N         2.28390249043433   14.71971651123486    9.90357702110742
C         3.40982918773615   15.43702016328591   10.01752886637922
H         3.95427394714134   15.31467765470135   10.94537739076954
C         3.88025488595615   16.28076303928822    9.04176239230625
H         4.79948308254148   16.82421897800709    9.19092060695431
C         3.15416575231681   16.41353903477158    7.85243438812241
H         3.50234738933396   17.06198794763435    7.06388155399174
C         1.98862477038344   15.69819531146304    7.71994786097290
H         1.40124316641765   15.77566854705561    6.81938162981760
C         1.56312465348649   14.85842851812268    8.75762867376157
C         0.35227278008405   14.08715451845236    8.75294226714445
C        -0.57672562706770   14.05668410172964    7.70264736512588
H        -0.39033585829938   14.62079358687165    6.80280365693404
C        -1.71339413910256   13.29531274523382    7.82513886187962
H        -2.43629272213580   13.24560173209675    7.02538773515926
C        -1.90999380994023   12.58417713997797    9.01245591167729
H        -2.78693284145964   11.97274562529923    9.15030996661115
C        -0.95789927696338   12.65667318707352   10.00056785025290
H        -1.06583808730185   12.11026458002484   10.92694303848267
N         0.16248152592771   13.37968069991988    9.89518841225659
O         0.64919397338560   12.04749434774154   12.27425433338017
C         1.14681200027577   10.92604774214991   12.62183862964636
O         2.35048046529000   10.70721707169993   12.66825340284192
C         0.13024163393288    9.85303277512610   12.99420265281424
H        -0.20775807059449    9.39634942164407   12.06570070681236
H        -0.72190724411910   10.29934808158317   13.50052670695191
H         0.59581618442201    9.09605322936353   13.61815474200475

