55
CSD_code = NIQXIV | q = 0 | S = 0 | Stoichiometry = C20H25Cl2N3O4Zn | MND = 5
Zn        5.94972813243443    6.72925082736877    1.67239594802407
Cl        5.36350003855920    8.67593203837200    0.77926952413670
Cl        6.71647377775885    4.77407144017366    0.84934503567350
N         7.99120880958364    7.22861093600591    2.46932679505597
H         8.39473951518499    6.30470920742883    2.62424714063199
N         3.92984289565068    5.81920611243130    2.04627175236740
H         4.15490371905099    4.83446604264318    2.18770727830293
N         5.55353387999720    7.23493780434570    3.80455241727222
H         5.23462524351412    8.19516211642484    3.68829848161974
O        12.87022371426932   10.14609109957909    3.47592426022951
O        14.12508692409711    8.21480374847104    3.41942518120404
O        -1.80743939008468    5.11741364713942    1.92205102044307
O        -1.59399879375185    2.82632125945212    1.80524960014464
C         8.85834124639276    7.92749677286772    1.51186522988515
H         8.45629467654979    8.93106398640168    1.36126911211343
H         8.79349910680889    7.38555717120932    0.56490156718718
C        10.28986278755538    7.97918499535822    1.97988994498191
C        10.82520814317906    9.16650298484285    2.48722116010416
H        10.25021028061289   10.07712140628665    2.51387440013619
C        12.12117745687820    9.13358375825814    2.93907360393885
C        12.88100484307945    7.96303126460096    2.90564148329277
C        12.36618862742113    6.78882220008295    2.41279738920096
H        12.95668131005348    5.88906183190266    2.38289549967373
C        11.05357080164321    6.82044722304880    1.95029966137029
H        10.62170585247791    5.91687842911766    1.54597321094423
C        14.13289919294227    9.58393850784745    3.76142565989758
H        14.35133994064312    9.69439657720880    4.83563735996857
H        14.90962168356811   10.10571927483351    3.17887242074380
C         3.01253225605297    5.89673939062845    0.90207418310850
H         3.56585279575439    5.55675051478315    0.02283977443378
H         2.74375865850252    6.94439003895076    0.75448638950227
C         1.78649960784000    5.04355216433141    1.10233519821824
C         0.55547855686567    5.63389539251253    1.40231527651122
H         0.44210783087388    6.70398787023795    1.45376847473830
C        -0.51174641047216    4.79717688704760    1.61594778566780
C        -0.38206957746464    3.40895026569952    1.54696296226531
C         0.82257142568371    2.81590654050252    1.25772965576505
H         0.91869756413914    1.74508278171009    1.20039574662418
C         1.90554922623736    3.66227532993434    1.03656796915189
H         2.86466451836047    3.22833095647518    0.79484242972038
C        -2.49631424547673    3.88902570459382    2.02185938532415
H        -3.29769433989208    3.85304439049014    1.26621954889362
H        -2.94096294036091    3.79677377736235    3.02541951611484
C         7.87581366679305    7.91068099719222    3.75287070562560
H         8.82205320462141    7.91336493962412    4.30952081016575
H         7.58540281887943    8.94570535814175    3.55218539247152
C         6.78393699309933    7.23409610040546    4.57938394357950
H         7.06312122560066    6.19374053027483    4.77063823119775
H         6.67055249114658    7.74720023990115    5.54465444048230
C         3.36380715339457    6.35190373778476    3.28001949411582
H         2.52899539223997    5.74337116248649    3.65143278222948
H         2.99437481519114    7.35867835820258    3.06606503619778
C         4.46291985211217    6.43434121999887    4.33733946439603
H         4.05724846489834    6.84851080353875    5.27109665065184
H         4.84781457931760    5.43084188352880    4.54172661431889

