69
CSD_code = NIRBOF | q = 0 | S = 0 | Stoichiometry = C35H31LaOS | MND = 16
La        8.21702295578556    9.96887151784151   14.11756119858740
S         9.58773273636490    6.73866258074264   13.55733442701558
O         9.58582305515551    8.22842044397191   13.71332631643542
C         8.36786046762505   10.11848811641806   16.61037098103208
H         8.73648034538534   11.08056461873725   16.96397647725343
C         9.11265600380896    8.89802788802059   16.73103037873707
H        10.18777230480850    8.85363028895059   16.86253764162893
C         8.24841109361839    7.81691941419884   16.77810170381525
H         8.52121867552555    6.77839504257448   16.87290737435825
C         6.91484379348387    8.30310234531485   16.74673387021236
C         6.97435132138081    9.73845572767402   16.66150657228606
C         5.79108571616431   10.49223518454157   16.72829110143745
H         5.82812918594888   11.57592289808699   16.71172722488649
C         4.58877610291992    9.83125185007250   16.84954753236915
H         3.67019568037203   10.39698345256488   16.91454329177471
C         4.53109971486660    8.43227911713896   16.90330392282749
H         3.56744516527818    7.95266937175640   16.99873197033486
C         5.67467656323288    7.66734301738865   16.85157342632348
H         5.61930119147973    6.58930986381319   16.91427028764620
C         8.65786395671725   12.24665921893569   12.76015338699028
C         9.64672620594593   11.34438516540221   12.26366944069592
H         9.75596680143578   11.03335856441574   11.23247082270438
C        10.59922058622314   11.15511918012044   13.28716479678762
H        11.54225693964103   10.63433343037881   13.17255435793254
C        10.21200135728490   11.86447846390223   14.43994298550726
H        10.81143119856259   11.99350890394664   15.33180403822052
C         9.01044528399322   12.56605830184313   14.13267119496285
C         7.55000177120673   12.88030790036712   12.16623350081415
H         7.30429825380341   12.68913406551113   11.12903079899307
C         6.81015666809403   13.77033333686202   12.90633917128753
H         5.96458449004237   14.27065707559688   12.45659532642062
C         7.13965647490428   14.06437556162492   14.23942965611083
H         6.53596425805545   14.77897915405644   14.78001847815451
C         8.22187488474383   13.48196009581927   14.85324482891736
H         8.48798332838224   13.74981340443735   15.86818416781678
C         7.04766466432894    7.46542371038308   12.02820866024450
C         7.03076358528235    8.83627452276611   11.59363579480100
C         6.29990060389453    9.60143188973850   12.57226744161885
H         5.76677066061775   10.52231910753921   12.33708174745641
C         5.83613674567995    8.64968049713933   13.54896815303624
H         5.08783592840101    8.86338021836233   14.30356593268858
C         6.31640079913722    7.38334211457375   13.24005906850760
H         6.12455678905738    6.48133265825578   13.79623693543975
C         7.60735185552516    9.18019732419287   10.36479651100143
H         7.56650347635490   10.20222383830005   10.00854702772974
C         8.18720546886419    8.19494967880611    9.59641599161455
H         8.62172176134030    8.44566423567677    8.63890187297627
C         8.20553284098264    6.86193102988701   10.02029525529983
H         8.65960439911252    6.11446164126049    9.38482867758890
C         7.65286285931876    6.49235869045481   11.22537639135188
H         7.64861309001980    5.45532766918248   11.53454380134995
C        10.55681337057156    6.46114415185295   12.06027709577875
C        11.03976469276931    7.54756983009283   11.35593856977321
H        10.83826041877492    8.54305625061414   11.72180108292045
C        11.75501986425375    7.34233511052502   10.19234888192160
H        12.13093341387821    8.18985677612998    9.63867956709117
C        11.98722839340022    6.05519297985788    9.71751024250507
C        11.48988214690518    4.97549711529353   10.43874939128741
H        11.65795318394637    3.97083276826567   10.07952266184720
C        10.77267664122793    5.17238697823548   11.60512327490775
H        10.37554212043199    4.33025878919777   12.15182290289725
C        12.73922301851496    5.85002219508933    8.43985606040972
H        12.98666833824655    4.80200972056844    8.29375083208824
H        13.65791827827069    6.43354008647862    8.43756587582992
H        12.13434621144039    6.18167950303032    7.59628636826831
C        10.93993636702685    6.21885378260270   14.68955631594685
H        10.59887220253236    6.38712576998611   15.70478118258242
H        11.81632189826377    6.82219393048415   14.48320579754965
H        11.14889937937458    5.16795087213578   14.53031198242800

