52
CSD_code = NIRFOJ | q = 0 | S = 0 | Stoichiometry = C26H17MoN3O3S2 | MND = 6
Mo        9.17683095674108    1.15473262507575    2.00814825115904
S        11.11947661861016    1.20666271172638    3.42101861631646
S         5.44504793632341    3.36676590495597    0.42779587392078
N         9.42655604031482    3.20916656266908    2.18507204299205
N         7.24366725840630    1.62973762114846    1.08394510561809
N         9.10853827582852   -0.57808311666413    1.85395757620260
C         9.28915891566751    4.09085872789154    1.24586138604820
H         9.31672321573363    5.15608876743318    1.48394517135125
C         9.76514943009249    3.59068522489974    3.47969815418002
C        10.60556063748081    2.70058423040348    4.17577948881106
C        11.02682021033467    3.02668999460188    5.46223815585394
H        11.67846977708658    2.33864341241830    5.97757351855456
C        10.59314827906242    4.19035136548160    6.06361835037122
H        10.90791207466804    4.42392487666341    7.06931620976378
C         9.74491595508319    5.05674278666279    5.38528139979778
H         9.39128618843249    5.95659171858753    5.86449369394786
C         9.34648641272200    4.76903083702595    4.09563358377620
H         8.66257155305769    5.42942076643898    3.58133777488939
C         9.22336217529955    3.74074629421333   -0.13464881969613
C         9.62452703672104    2.44463082408716   -0.58004462356108
C         6.51889909767124    2.60272140728769    1.59337004952471
C         6.93215604548830    1.36077151482454   -0.22159515813977
C         5.98420062475826    2.23615581782858   -0.78132664194734
C         5.58765072606654    2.12814118073869   -2.10264555659101
H         4.86911319555244    2.81714188269936   -2.51665723675362
C         6.12911334740553    1.10729440574559   -2.85952003687268
H         5.83348755600166    0.99918478112581   -3.89150170585181
C         7.03430126706289    0.20530580489418   -2.30371539636676
H         7.41925339623267   -0.59852163875922   -2.91170791310949
C         7.44385684071949    0.31712339770567   -0.99144973430822
H         8.14223298071084   -0.37921280683631   -0.54898785926530
C         6.51517885474980    2.98306124166362    2.96789507353571
C         7.26782040415099    2.22662622552551    3.92194476931839
C         9.73768464029363    2.23233814853250   -1.96945143375663
H        10.08523595717554    1.26320150949184   -2.29533896227445
C         9.38838738852182    3.20651794601583   -2.87215673514918
H         9.45867081772782    3.00659610710975   -3.93067935251581
C         8.94421749159700    4.45406913569456   -2.43204610545747
H         8.66429545150730    5.21152373750369   -3.14748059083102
C         8.89196055364519    4.71981300145490   -1.08675960247012
H         8.58422417386685    5.69470647655971   -0.73484198250541
C         7.13517841415852    2.56098012675641    5.28631470642197
H         7.69953499607322    1.97220707606125    5.99498475303416
C         6.35771191650792    3.61677851555063    5.68642132645762
H         6.29318499306099    3.86727782742820    6.73439017277167
C         5.64937252308091    4.37448921288704    4.74910377175967
H         5.04236221183365    5.20480081982178    5.07398648227854
C         5.71835280199206    4.04882990336231    3.41926089908182
H         5.15670507225783    4.61351603721804    2.68750966678622
O         9.86625080211054    1.45809015115695    0.23490155827886
O         8.05394789378336    1.26595420852760    3.55974119223177
O         9.12014861657392   -1.75145529114118    1.71671667236245

