74
CSD_code = NIRGIE | q = 0 | S = 0 | Stoichiometry = C34H33MoO3PS2 | MND = 6
Mo       -0.23552814706833   12.53476106169092   15.25049279673728
S        -1.35616915792355   11.45843702221894   13.31370795251647
S        -1.81313017532186   11.18447174047425   16.64324601021917
P         1.17376468591818   10.63316430795901   15.21082493003311
O         1.69336147964962   14.32044793874193   13.66953357357085
O        -2.13823281347888   14.95223359327835   15.20522919396582
O         1.06478514126515   13.78540405546081   17.73270991081414
C         0.31566542944503    9.00288783515551   15.38413709882477
H         0.90078882884932    8.24875035356489   14.84501064046432
H         0.29544765031401    8.72615983926650   16.44291880519875
C        -1.29469212692703    9.64560075250951   13.49384353893159
H        -2.21373761128779    9.29212512779944   13.02093256277339
H        -0.44917339812910    9.35294902990126   12.86522567486361
C        -2.10180399367354    9.52961189656010   15.92676197160956
H        -2.13168847453229    8.85289919183013   16.78356131406161
H        -3.10737336163999    9.57870974854758   15.50341952583852
C        -1.13394471529241    8.98386649361394   14.87189679809493
C        -1.52445118739624    7.50633430244011   14.67136627589176
H        -1.33820240216375    6.93631277359653   15.57986833290322
H        -0.94304888677839    7.06678539739860   13.86338054583106
H        -2.57995045120574    7.41508817949749   14.42103291308938
C        -3.14201019399241   11.82571242741355   13.51145349597494
H        -3.42258140775280   11.72689342802046   14.56114659942916
H        -3.19797326338132   12.87925935775271   13.22680280285844
C        -3.97766338360992   10.97642713886245   12.61447890554016
C        -3.77319066081433   11.01040683290377   11.23830915422423
H        -3.01494395815628   11.66658951110052   10.83616566440326
C        -4.52422194285644   10.21047848207269   10.39842423967019
H        -4.35850435183756   10.24632439045694    9.33203933710314
C        -5.48873092527270    9.36462539649474   10.92270597391988
H        -6.07628374026312    8.74004318946363   10.26666225670273
C        -5.69860065474656    9.32417082144518   12.28997862865484
H        -6.45093876639447    8.66894434471298   12.70403480153665
C        -4.94436246384569   10.12313803904015   13.13225503912912
H        -5.11991263408403   10.09450997746676   14.19940409940345
C        -0.83410248489662   10.82364199268580   18.14485375536925
H         0.20006850298616   10.61826288618159   17.85960811098401
H        -0.86645499264920   11.77722054062344   18.67928057442676
C        -1.42485867326400    9.72589801936595   18.96366888027848
C        -2.75053014406173    9.79716723027817   19.38102577927981
H        -3.34144774404554   10.66051921977746   19.11058353362551
C        -0.66730116890338    8.61287761285693   19.30755709822089
H         0.36910664448969    8.55670985978901   19.00332292025711
C         2.15858572804388   10.30996838661579   13.70946184426157
C         3.15290047050443    9.33379089602505   13.71648136927188
H         3.35222899749589    8.77302171230469   14.62061353862470
C         3.89695827233116    9.09063265884356   12.57834158396645
H         4.66976644704614    8.33544565394213   12.59218382857215
C         3.65765982907872    9.81823890358304   11.42275326939642
H         4.24336251731163    9.62849390628474   10.53533148231026
C         2.67323972181285   10.79106602574027   11.41087687265894
H         2.48750661060098   11.36384473556262   10.51436810749270
C         1.92739007756321   11.03886826557508   12.55053846786896
H         1.16194025308690   11.80468816161121   12.54255783353686
C         2.51309824099012   10.54020534480528   16.43306769624708
C         2.82814150898687    9.46372238136122   17.25430932108135
H         2.27170176813865    8.53750971992758   17.19904096306217
C         3.87542841595797    9.56363963709125   18.15510970362062
H         4.11062859140441    8.72501679364359   18.79537877158905
C         4.61986578313546   10.72723852357405   18.23586741908070
H         5.43249503693114   10.79864085676193   18.94348496676623
C         4.32254605835042   11.79766209047439   17.40617942209697
H         4.90473062720641   12.70508863284090   17.46201059834749
C         3.27406451792493   11.70477068965200   16.51297992073064
H         3.02178162249614   12.53517230942644   15.86336575594645
C         0.97596917999568   13.61745613863999   14.21488851331947
C        -1.45642840170218   14.03813518066251   15.22735307374528
C         0.58238148456509   13.30878916291955   16.81145605333577
C        -1.22305910119318    7.59120909374234   20.05828000506831
H        -0.62281037397270    6.73353312953648   20.32439814461718
C        -2.54335166344784    7.66846112905622   20.46621439586303
H        -2.97673441166425    6.87023613322431   21.04989825106356
C        -3.30569189118896    8.77490092227640   20.12718432362291
H        -4.33474382300535    8.84133148393742   20.44756248553336

