45
CSD_code = NIRGOK | q = 0 | S = 0 | Stoichiometry = C22H18Cl2PdS2 | MND = 4
Pd        3.06381708858820   17.35071029551700    7.96814846491539
Cl        3.00220767274168   16.93659053443493    5.76426549231850
Cl        5.27349572805532   17.02355584577235    7.92469062991660
C         3.91610270146762   19.73122415620574    9.58765727948558
H         4.75778830191683   19.54044926521727    8.91711123557595
H         4.23689646869368   20.37571462982415   10.40179993553775
H         3.07924142126180   20.17137436097018    9.04119088934521
S         3.43953541463816   18.09021831334780   10.22834415374923
C         0.90616452790940   17.38852759690395   10.97176216127932
C         1.83694980766526   18.40871302865651   10.95395054247834
C         1.55861638794319   19.64101450925149   11.56933138560794
H         2.30574765778048   20.41798666730549   11.57684139433730
C         0.34775213327113   19.85405869718852   12.16192974834635
H         0.13373651132285   20.80381488410985   12.62960892623500
C        -0.63976341206198   18.84763073509088   12.18289191398115
C        -0.35598799302206   17.59364996502612   11.58217320085200
C        -1.34647860703386   16.58849151013798   11.59988175724844
H        -1.12949911633907   15.63515574654845   11.14127676569786
C        -2.55825269973159   16.81726769414643   12.18890399770057
H        -3.31096440587715   16.04306328352039   12.19815905285607
C        -2.83789363322986   18.05596499927590   12.78669668485645
H        -3.80092590590444   18.21705173646063   13.24776405351642
C        -1.89893861188310   19.04916526876045   12.78377275238486
H        -2.10698561499341   20.00601088594398   13.24031635692375
C         1.21248058981803   16.10893712401471   10.29010638727254
C         1.14924153268163   16.07619645570731    8.90916706887542
C         1.49584274074645   14.90842715037211    8.18880824982892
H         1.43462686778774   14.89413761598258    7.10657112470793
C         1.89688078789026   13.79519750304297    8.87563088628478
H         2.17448557070305   12.90277965880266    8.33462309075040
C         1.97225901215412   13.78610429896246   10.28625707095072
C         1.63026187420618   14.96078352821979   11.00755672696302
C         1.72455984365770   14.95322658066147   12.41494339900788
H         1.46916520110675   15.85043582074290   12.95943760987117
C         2.13455613987642   13.82924993710355   13.07607903072023
H         2.20628022378208   13.83123667725971   14.15357136491573
C         2.46982952182867   12.66668941171486   12.36576213636394
H         2.79446109327364   11.79007764115532   12.90613298489031
C         2.39090763197559   12.64624049158687   11.00084398319131
H         2.65316228026213   11.75670988499337   10.44699400351851
S         0.65154027793394   17.60005099510924    8.08570948923338
C        -0.14529130144352   17.00262730765851    6.56974391917833
H        -0.74371057869248   17.83300321819807    6.20559121543908
H        -0.78553803580160   16.16303915625884    6.82371278982776
H         0.61723690308538   16.74094493283761    5.83558869308767

