35
CSD_code = NIRKAA | q = -1 | S = 0 | Stoichiometry = C14H10AuN8S2(1-) | MND = 2
Au       -1.05583603767120   11.18819037644840    1.82636399047534
S        -1.93175993448404   13.30482806706103    2.30035879287466
C        -1.53273180038056   13.55073347562394    3.93621856104107
N        -1.44905776039836   12.61983001825792    4.94882649630440
N        -1.10094897900002   13.30032631321810    6.06267522955332
N        -1.01445913315050   14.52434807893109    5.75215244332165
N        -1.26294585299886   14.72996169545319    4.47064349223290
C        -1.61874940782416   11.23728099983888    4.97251892077644
C        -2.63056760912090   10.62563557589377    4.23498409974302
H        -3.33474243745225   11.22732813668865    3.68061178325290
C        -2.75656864044557    9.24587618568991    4.26914102545312
H        -3.52850523863155    8.76837412260783    3.68348594126437
C        -1.88945767491012    8.48174095188992    5.02925884072981
H        -1.97623110049486    7.40389341049153    5.02950006384692
C        -0.90921310811722    9.09948728403685    5.79166590233756
H        -0.23370671404157    8.50568711969726    6.39125680079270
C        -0.76778229468993   10.47296038158692    5.76496814895408
H         0.00611043116259   10.96725712057215    6.33089497103700
S        -0.56418063846835    8.90213278417874    1.43162597257930
C         0.53711967352439    9.00039395650336    2.70627812738295
N         1.17881485847831    8.00802157997165    3.39713128948130
N         1.95717555607388    8.63799790500498    4.31716651798263
N         1.79408179940197    9.88093507482027    4.18181033454441
N         0.93453084075783   10.15879651291167    3.21626449543417
C         1.11175871737123    6.61994554429110    3.34263370134385
C         0.38815217395965    5.95643007820305    2.35758178595895
H        -0.14036899334598    6.51948862194502    1.60664094175375
C         0.35302659097162    4.57414335478961    2.35680807744514
H        -0.21083613055858    4.06196867302276    1.59065175578559
C         1.03095482067040    3.84765033933284    3.32102471175752
H         0.99826519046515    2.76749990393307    3.31110680295271
C         1.75258460379606    4.51334393726188    4.29927715652471
H         2.28450386945546    3.95365032693908    5.05550525969201
C         1.79597429274990    5.89289500629007    4.31601169234662
H         2.35219606737077    6.42856708661047    5.06905587303580

