90
CSD_code = NIRSUD | q = 0 | S = 0 | Stoichiometry = C28H54ClN4P2Rh | MND = 4
Rh        6.25093311072000   10.79240682346541   14.83482457384264
P         6.27432045822647   11.38372835711293   12.67555881251811
P         8.38115997081974   10.53438730231913   15.47438296085636
Cl        5.72197386904104    9.87319413440034   16.85051437821883
N         4.22479635497251   11.14799509821334   14.19204271944510
N         3.31484059309927   11.33591319277677   12.19966302377662
N         9.67775837534925   10.86592708779748   17.87565747433237
N         7.98150562849955   12.26061913820661   17.66988194420652
C         4.47358213452031   11.30325489751964   12.89533033946840
C         2.30583367862037   11.21792797139214   13.11549172639904
H         1.28152096388692   11.22230516216390   12.80519260442580
C         2.87535403689943   11.10394621369894   14.35773522659125
C         2.18162085574699   10.96832148685520   15.68339917363458
C         2.32035919142663    9.51990807496501   16.16463203386141
H         1.88662632564347    8.83133363699636   15.44117917796979
H         1.81105847682426    9.39320986825870   17.11664584653611
H         3.37069610780871    9.27693458510802   16.30175341228773
C         2.84365750353130   11.91416474906888   16.68870395466843
H         3.88473699559823   11.63189715699574   16.82031646639420
H         2.34364538488797   11.84480115104960   17.65142349382069
H         2.79168165264102   12.94440212619404   16.33925567980560
C         0.69851838445510   11.32216561653685   15.53825492515722
H         0.57574501282601   12.32714085575883   15.13846242419729
H         0.21839715863262   11.28064050484308   16.51299605250301
H         0.19081966025705   10.61859485598337   14.88201449879353
C         3.10963593839358   11.44072076398500   10.78301646839981
H         2.73032931053136   12.43199295481471   10.51908258304029
H         2.37977780841524   10.69602613194693   10.45992893483778
H         4.04782594000608   11.26372314135547   10.26238679142258
C         6.56888487253693   10.15330645693160   11.30031990256142
H         6.08302576407444   10.47316619588745   10.37189997166926
C         5.97376670575599    8.83080745301339   11.77655088613785
H         6.35556894526017    7.99686319811889   11.19032301916963
H         4.88717518465135    8.83630588561043   11.70209347500563
H         6.23628329804202    8.66986428878218   12.82918809724101
C         8.06994686292436   10.02881257801655   11.06723312938594
H         8.55098153155767    9.68929906005470   11.98181515139147
H         8.50370160541014   10.98633581658224   10.78119316980530
H         8.27852361494750    9.30686537213740   10.27871795745115
C         6.58882462422680   13.07527508511134   11.91987255916106
H         7.67190975526829   13.20937346036895   12.04203105052039
C         6.24690630284749   13.29538690234634   10.45175776311185
H         5.17563881795360   13.22970211282157   10.28237642859508
H         6.75386526862299   12.58130460039665    9.80725095544530
H         6.56741588641686   14.29441622668415   10.15733228577981
C         5.87293953237224   14.08685938182563   12.81267088558428
H         6.25372932985000   15.09314693292191   12.64805703071639
H         6.00977273252553   13.82913723906901   13.86576576541637
H         4.80320536252377   14.08559532245852   12.60691588928912
C         8.68950804724173   11.25414672349527   17.09802483368462
C         8.56150608501911   12.50120073653425   18.88046695707701
H         8.18160772217333   13.25393071119378   19.54062135147835
C         9.61305601084242   11.62981238352670   18.99719345972005
C        10.59885516448403   11.43345467498971   20.11287822421798
C        12.01418361753463   11.60702046259670   19.54975537044049
H        12.17046397930914   10.90825239653939   18.73251763633704
H        12.75713208088941   11.42039489772877   20.32232423855451
H        12.15173777410388   12.61847973811942   19.17187588536376
C        10.43614308986531   10.00688846127365   20.65012509854441
H         9.43762985174942    9.86924652829948   21.05940585266122
H        11.16556203348122    9.80793641834146   21.43266824867178
H        10.57680689052558    9.29380763815480   19.84245666781199
C        10.35811659975266   12.44308315299523   21.23507202311821
H        10.46018013782202   13.46127012069251   20.86547312985829
H        11.08345221579805   12.29237271142621   22.03199925248832
H         9.36075254260361   12.32224735660034   21.65129339987232
C         6.85412763301539   12.96846596057102   17.13471409906270
H         7.13604405584088   13.98742929624538   16.85453522182226
H         6.05619333057942   13.00760953385718   17.87758447031622
H         6.48132711867593   12.41612499907231   16.23851404427828
C         9.18593822168763    8.87721694782935   15.71605647840362
H        10.17336646054496    9.07847577346043   16.14246804988735
C         8.39650208359556    8.03112880414180   16.70598316160239
H         7.39814669249395    7.82560716766678   16.32504790970325
H         8.29952191270003    8.55302180644273   17.65481702771405
H         8.90582300161911    7.08356537312110   16.87821790376671
C         9.30346122630363    8.15763631928139   14.37657084963612
H         9.74728564448958    7.17267944340588   14.51491031841577
H         9.92199769790808    8.71390480798660   13.67411446099398
H         8.31168731491377    8.02622138443277   13.94389831281335
C         9.67849778240404   11.48179277507904   14.49529700290316
H         9.55968640110127   11.17541911259100   13.44909952016479
C        11.11219064743815   11.24141354729594   14.94963917971332
H        11.76874806572278   11.99029211180514   14.50699892857813
H        11.47200349734537   10.26111487409645   14.64866845871941
H        11.17977013652085   11.31966626749815   16.03318858254535
C         9.33086245832101   12.96432673583635   14.59965877012002
H         9.56107391648737   13.33345188152643   15.59720229245830
H         8.26785911379060   13.11467438889728   14.40650748646877
H         9.90391486335896   13.54900896640278   13.88056276526413

