69
CSD_code = NIRXUK | q = 0 | S = 0 | Stoichiometry = C26H34N4O2PdS2 | MND = 4
Pd        2.74404066737165    7.97761345793903    4.11394438646955
S         3.63055959562336    6.19045652148576    5.20744776537552
S         1.06779461701674    6.65936315012377    3.31765971036073
O         2.09010536220288    9.64789785991797    3.06763835397159
O         4.24596623007382    9.25453882969077    4.75298271013770
N        -1.36260785464496    7.39048520051530    2.60940855699134
N         5.62790755627608    7.87601141643143    5.98939656987505
N         5.17645738457578    6.11419314943486    7.33112046420123
N         0.23756117085248    8.85262072333758    1.94631537984756
C         8.82786777858684   10.40651961823360    5.23753023184528
H         9.79123677062666   10.22756338647575    5.69431661185779
C         0.56064558957192   10.82119083138260    0.01086422126981
H        -0.37075290205310   10.27979484779267    0.05657467256712
C         5.36621364725209    8.90954232889513    5.20304941457190
C         6.21387399583563    6.57638254569392    8.23180515834171
H         5.93994448095140    6.28034702396984    9.24742210212205
H         6.25238816559747    7.66552206880784    8.17796566699107
C         6.52621002992446    9.79335488207934    4.93542103602184
C         1.52360200188044   10.59440679253504    0.99061240821466
C        -0.06885957488628    7.75475591300651    2.60177571380446
C         1.31147260762467    9.61522998937439    2.08242349897047
C         2.00233152370507   12.43679575914491   -1.05374292494152
C         7.76944671983462    9.56799598178964    5.52025702040178
H         7.88757228739999    8.73445280100945    6.19400641010666
C         0.80212691203195   11.73270039810470   -0.99596897927282
H         0.05108681747762   11.90738962486904   -1.75370676104268
C         8.67633084017562   11.48545222150911    4.37057392112707
C         4.87237690237024    6.82739571619856    6.23554507470171
C         7.43247102408880   11.70514547892597    3.79092336642757
H         7.29906462726667   12.53832772093578    3.11532352924995
C         6.36802811630845   10.87060224907241    4.06780822113872
H         5.39956331162452   11.03805372367099    3.62014466258569
C         2.72518797389561   11.29501940075952    0.93897892234157
H         3.46838148104299   11.10838533851116    1.70026814650496
C         2.95912432749659   12.20462316126390   -0.07341166135843
H         3.89700298911057   12.74103624528484   -0.10583642866676
C        -1.79376920137521    6.12408158879774    3.15746984010611
H        -2.85489709690909    6.21030018529644    3.40258338968113
H        -1.23339284993625    5.94209709020745    4.07979040412290
C        -2.34151537102235    8.25557455681020    1.98000215970726
H        -2.01448132164956    9.28761626631637    2.12429111293534
H        -3.29815298461131    8.11452787717687    2.48913885016406
C         4.50428997257727    4.87688796365805    7.66389759020776
H         5.18675645208186    4.27920700910826    8.27207296375450
H         4.28860942311982    4.33015766307232    6.74369345063245
C         3.20481201012666    5.13065595473948    8.42510001280519
H         3.39738532564287    5.68768249648150    9.33935191615594
H         2.73462428774091    4.18577188738288    8.68172244410711
H         2.52069346618111    5.70255515233978    7.80383939965976
C        -2.49340218485733    7.98076164916377    0.48585642033525
H        -1.52029288400287    8.03581266260278    0.00601308640462
H        -3.15061031004950    8.72284685895138    0.03979769943686
H        -2.91622284198257    6.99541549472387    0.30990136877777
C         7.57509828632907    5.99589555796923    7.85692375824555
H         7.56129398763180    4.90978316503343    7.91173192016588
H         8.33965555911632    6.36932511169754    8.53283748691773
H         7.82682750375208    6.28696271546164    6.84092050929348
C         9.83275829928488   12.39493040294069    4.08954916533236
H        10.02730282442212   13.02895400025422    4.95499501042137
H         9.62765614036961   13.03584666224563    3.23581080725299
H        10.73489128274724   11.81936928934463    3.89042454571081
C        -1.57040886939344    4.94819660254007    2.20894067969228
H        -2.14166088848061    5.06872123254487    1.29274524741396
H        -1.87994839668650    4.02697537827789    2.69477292097716
H        -0.51647869996042    4.87059046647178    1.95908617126125
C         2.24141279105845   13.42421863524220   -2.15445857566439
H         2.12888523096647   12.94477306328610   -3.12600517145936
H         3.23960758417323   13.84940880087509   -2.08870001424190
H         1.51465029948910   14.23423020068924   -2.09883372342918

