59
CSD_code = NIRYEV | q = 0 | S = 0 | Stoichiometry = C25H29ClNO2Rh | MND = 8
Rh        0.49508561290659    9.17672338606822   11.71500014146544
Cl       -1.49579673750651    9.99797492396885   10.89408729675667
O        -1.22505537093870    4.48678237147464    9.70468321545439
H        -1.27404892628327    3.96789304899923    8.89249677037206
O         3.64935303554170   15.00487036783847   10.93100957948722
N         1.42589237768343    9.98444591120418   10.11467366376230
C         0.76898308086615    8.04672645871532    9.07278528226246
C         1.39348066501855    9.33981292447864    8.99053658446071
C        -0.56637653052614    5.65216350283711    9.47052592869309
C         1.90240104072417    9.89284187294503    7.69785656843092
H         2.18311126534942   10.93787543859127    7.80162141555916
H         1.12569027696894    9.80797136435808    6.94032507210019
H         2.76769076330674    9.32265582123780    7.36124914480175
C         0.24528829642949    7.74343193695746   10.35072900296320
C        -0.43949117668300    6.55354314815275   10.52330725544781
H        -0.90750620692429    6.29611768634704   11.46187673455067
C        -0.02547694436385    5.94860585748259    8.21856426057793
H        -0.13851940225225    5.24287148426692    7.40555462253166
C         1.22888138124128   12.33329917332463   10.66565494667145
H         0.16599901841005   12.18744912088834   10.79977975014084
C         0.15620035426224   10.00718524861018   13.83274770549061
C         2.01469096400758   11.24588490439166   10.27376527401368
C        -0.14519649708356    8.58792737318828   13.70691430702583
C         3.96759330697608   12.66360615183727   10.31545399604520
H         5.03305164755711   12.76577874274880   10.18024913213029
C         1.07699503092590    7.90571257173324   13.43688955533343
C         3.18319138688782   13.74626314513816   10.69645489178091
C         0.62667952992614    7.14370016115524    8.01785889122830
H         1.02218825797714    7.37933172733401    7.04096207505396
C         1.80722649076288   13.56488569906482   10.86608900585203
H         1.21344556411229   14.41611543291147   11.15897023794023
C        -1.44097334518986    7.98383342522601   14.15708478517750
H        -2.28243917249696    8.51282794403487   13.71366202499661
H        -1.52462581617527    8.05690427457478   15.24349368590563
H        -1.50871498805383    6.93535832545960   13.87744343198952
C         2.07722956684827    8.90339631903518   13.21193645327964
C         3.38345124034626   11.42629684631994   10.10043119575797
H         3.99849271874516   10.58566479522701    9.81122762211210
C         5.02402792939442   15.25406398142107   10.77414232591700
H         5.35374499763244   15.06436061271226    9.74728396214938
H         5.62422964023956   14.65300076471101   11.46547697858465
H         5.16091826472564   16.30917178438717   11.00538487955647
C        -0.83604420807106   11.02318547359388   14.29986596727173
H        -0.40867180296330   12.02253276861324   14.28960110141997
H        -1.15354659623905   10.78708038295991   15.31677883738094
H        -1.71723517541662   11.01678614177204   13.65907098115012
C         1.51228384585513   10.19685890597587   13.54582835385984
C         3.54023472605326    8.63636892357782   13.03520707952487
H         3.70421904414352    7.70358957222907   12.50000632420692
H         4.02051267002588    8.55919296446994   14.01314106484916
H         4.02231444209337    9.44276878796779   12.48548036243768
C         2.30872311532924   11.45224606641987   13.72276569964510
H         3.12053018682549   11.51245087331024   13.00092158392680
H         2.74407920844361   11.46581975597369   14.72457591904912
H         1.68722167763134   12.33657248576382   13.60629883099288
C         1.33370747544308    6.43147114542990   13.50295834345534
H         0.40503205587416    5.86826324294790   13.51390551878752
H         1.88012114219193    6.20647384926133   14.42107073680966
H         1.93092559366616    6.09021262832436   12.65948363923021

