96
CSD_code = NIRYUK | q = 0 | S = 0 | Stoichiometry = C39H51Cl2FeP3 | MND = 5
Fe        2.55332420166997    4.14732321184324    4.81970635794292
Cl        4.13946484071537    5.40305590227945    3.99761173985021
Cl        1.53460572915048    5.48352855006078    6.13553619774975
P         3.07152213063919    2.33883489245717    3.81399101268447
P         3.79480241486886    3.51339504527163    6.58101762260848
P         1.17682780890883    4.79658432237125    3.20116341943210
C         2.80001054225016    0.91496958056719    4.92454370487709
C         1.90210702097671   -0.10061332841450    4.65873751224380
C         1.90343278438444   -1.32677157117590    5.34746854678250
C         2.88832882681565   -1.55542720164865    6.26841653345780
C         3.75117958101601   -0.49796007850502    6.60166843305663
C         4.70215292041225   -0.87120640207109    7.56480924228827
C         5.58374753498046    0.07619530952035    8.00527938473911
C         5.40055375922650    1.40947689980392    7.59225941094547
C         4.44819366893186    1.79920824473415    6.66865751199543
C         3.66573167185514    0.78676754476286    6.04652912050449
C         3.27053676218196   -2.76329102958441    7.07580128767338
C         4.50286046248324   -2.32062283096953    7.90580562716617
C         4.90295749341122    2.19143968229759    3.40113083999488
C         5.58932222973152    0.82922182249631    3.41646529541815
C         5.12228439340550    2.88926226934559    2.06020736178404
C         5.21359164779499    4.55356536014539    7.19028757866598
C         4.76534480898386    6.00540199481078    7.32704685929448
C         6.42983012586381    4.44197209817469    6.27398232944605
C         2.71589966384857    3.38930666683005    8.12507731930758
C         1.53076150991833    2.47944919934897    7.80928143807079
C         3.37841161693880    2.95811688352003    9.42678192888290
C         2.32657158412624    1.75408184112243    2.25530358930988
C         2.67823411604868    0.47679794044903    1.85331089691835
C         2.31303254962336   -0.08773434881378    0.62525625092583
C         1.58424757605353    0.68038626691523   -0.23685558377159
C         1.21467641106453    1.97975208531542    0.15336128253118
C         0.47257502886090    2.61105819284284   -0.85984106875591
C         0.02360112374954    3.88042910370244   -0.64369050885965
C         0.31036349280677    4.48301481204321    0.58979128515164
C         1.03955156164051    3.88867615148992    1.60531106245521
C         1.54265548292558    2.57107485229095    1.39358694488198
C         1.06091490556995    0.39600962804710   -1.61411626165634
C         0.32556000088332    1.68863568532260   -2.03377551556753
C         1.15845180351186    6.57944510877475    2.62663644488691
C         1.29368577186556    7.55628817264414    3.78868370769639
C         2.26645637578724    6.83579234255561    1.60530390218431
C        -0.55773588341399    4.47779243467086    3.85128609978742
C        -1.74006320730641    4.84105901488078    2.96393777761954
C        -0.60198304749258    2.99412924770878    4.21651588788954
H         1.18420990456843    0.02934928473205    3.86087935703963
H         1.17212236164987   -2.08003811368629    5.09401334041530
H         6.36348314118028   -0.15705118830577    8.71566077669158
H         6.03290693742962    2.15394327958022    8.05043799984399
H         3.50501189051424   -3.60916608131471    6.42699369997437
H         2.44517603515336   -3.06769031358800    7.72255195807875
H         4.33550124754947   -2.45167109521231    8.97637530009001
H         5.38905424283595   -2.90088069120808    7.64091626677231
H         5.35396486245015    2.81584510260568    4.18600002608370
H         6.66760729633476    0.98585171137706    3.42086103746252
H         5.34680129332907    0.25256894258908    2.52704058450749
H         5.33310779525911    0.24572775073254    4.29835795698020
H         4.74901209855106    2.28070276821836    1.23771322215261
H         6.18399585937634    3.06895716319254    1.90385679252853
H         4.61106639282927    3.85050826736393    2.04783055875082
H         5.47673727011388    4.17331802957494    8.18556853105779
H         4.49603203980055    6.40747084770859    6.35377594737868
H         5.57669139614964    6.60805566398129    7.73253998660017
H         3.90492204226467    6.09622805809566    7.98719412833775
H         7.26663606349229    4.98700054274213    6.70903698808648
H         6.20804480732053    4.87830234328724    5.30361565985160
H         6.73143219778952    3.40420622701174    6.13480127567618
H         2.33483618913832    4.40890998676486    8.25328783480557
H         0.77022294353206    2.56597082947275    8.58369296296425
H         1.83866548180999    1.43644861227491    7.74644346210147
H         1.07592261923049    2.76449353394519    6.85799011589602
H         3.80807330411839    1.96129610970827    9.34669790661279
H         2.62137193288253    2.93520237806911   10.21009118114374
H         4.15319544814908    3.65337975335995    9.73976457360434
H         3.26145699557782   -0.13030804959635    2.52863229474505
H         2.61871655990714   -1.09441055353676    0.38050373337154
H        -0.54865088025506    4.42088451214698   -1.38334749257420
H        -0.07515312639172    5.47884711840984    0.72941913067852
H         0.38831152750735   -0.46390049452153   -1.60074704869498
H         1.87969100092942    0.15844902305951   -2.29575433470085
H         0.76917897285459    2.13152594820198   -2.92736598138901
H        -0.72790323280664    1.50208584178117   -2.25091232217149
H         0.17866002087497    6.75501425315021    2.16392600884797
H         1.24235156263886    8.57671013396357    3.41039807492702
H         2.25205476534074    7.42662898935235    4.28452717814314
H         0.50155174276118    7.42044168305429    4.52138569183879
H         3.23808823359579    6.72444000307258    2.07868839399790
H         2.18374900165258    7.85367568223139    1.22677059519591
H         2.21527393586006    6.14947260601965    0.76218408367348
H        -0.61644482782897    5.07100890919990    4.77237524986469
H        -2.66300540985520    4.60501750093564    3.49302493571706
H        -1.72898161085506    4.27171034336715    2.03618409727634
H        -1.75692225888490    5.90283318948870    2.73001982168787
H        -0.59957779387940    2.37813257024688    3.31726246058582
H        -1.49550250198523    2.76029604971840    4.79335995006103
H         0.27517043076847    2.72153346698928    4.81500623697359

