100
CSD_code = NIRZEV | q = 1 | S = 0 | Stoichiometry = C41H54CuNP3(1+) | MND = 4
Cu       18.41843388300343    6.68681613254473    3.15407108677596
P        18.27790590653843    4.53261255298463    2.26258216060117
P        18.60013737431562    5.91245659582972    5.29361789111444
P        20.09550420058912    7.27103808243991    1.66967227922955
N        16.88107873505404    7.84777965109176    2.85796567626151
C        18.79377446421394    3.14000262380071    3.35018899395181
C        19.33028032918176    2.00576240642871    2.76930850192206
C        19.47578397024290    0.77849334562815    3.43023545655787
C        18.99193862246127    0.67608163190400    4.70262140461131
C        18.50828649059482    1.83615175056068    5.33605645741730
C        18.07596373219156    1.54532801518471    6.64369823343936
C        17.61782347616240    2.56378649602911    7.42943327638333
C        17.71279272969350    3.86929055749928    6.92827632725499
C        18.14940068825898    4.17809152697218    5.65193064291520
C        18.47742264969353    3.11832845551385    4.74729983486898
C        18.88298773322531   -0.49210361423009    5.63437532474970
C        18.23363925186526    0.08026188147648    6.91406793695715
C        16.49423234753183    3.99394461886721    2.02787664074244
C        15.73589837245163    4.26704542561304    3.32414481955615
C        15.85661676653697    4.77564666924528    0.88410661816844
C        20.35826121339541    5.88610667092284    5.93403967127671
C        20.53150665367656    5.47167578404222    7.38944481859131
C        21.17462773386822    4.99046377103072    5.00373918815303
C        17.69203793184682    6.97182691594209    6.52912554320690
C        18.19001183376335    8.40548073673940    6.35944205501975
C        16.19811866504944    6.89005934647308    6.22609758126365
C        19.10222672150220    4.13622043590115    0.67328652508291
C        18.60239848152989    3.07441671245356   -0.06470241374000
C        19.23196634993385    2.52971208690809   -1.18989688720300
C        20.45431342944134    3.02998606595712   -1.53660614744807
C        20.97010852442635    4.12786588312424   -0.82160815747954
C        22.23260104054979    4.49128035959450   -1.32862364222617
C        22.87887831965678    5.56303876518943   -0.78441441502879
C        22.19997555363695    6.30791640780313    0.18783293793035
C        20.95117576097799    5.98164188342370    0.69009717611685
C        20.30750518995226    4.78068809844884    0.24352799675942
C        21.41758989789010    2.61739057597707   -2.60626317234801
C        22.62311605282888    3.56702369542726   -2.44021731759566
C        21.39022359807914    8.48739887715033    2.25277064088054
C        22.35045004092470    7.82037202636621    3.23219816762773
C        20.64215397995296    9.62566908199952    2.94535800676443
C        19.29863172114302    8.23309732741918    0.26628570423546
C        20.25468678148703    8.83545458872310   -0.75643647492534
C        18.28218430477464    7.32451615922472   -0.41827564891527
C        16.38283568224055    8.80752083301339    2.46861216719991
C        15.73747013369422    9.98675049615433    1.99669064709102
H        19.64314771049097    2.04312669081440    1.73734531701636
H        19.91061382136192   -0.06174178939471    2.91121377987702
H        17.24817047047506    2.39612498278618    8.42926791851248
H        17.44104596402017    4.66768461936813    7.60007666150358
H        19.86973260883221   -0.91148930917660    5.83838616095355
H        18.27895215952837   -1.28613762662714    5.19269875493648
H        17.26197107743944   -0.37692667210418    7.10957289394033
H        18.85370600662483   -0.08883088364355    7.79563561502692
H        16.45890152920527    2.91685758614126    1.82443500122766
H        14.66810804924960    4.12462653804079    3.16633156806858
H        15.90066401766901    5.29538407332206    3.64903478679898
H        16.05107540949179    3.59516073504867    4.11890038672040
H        15.79852080793614    5.83181571456022    1.14585755143587
H        14.84389593375038    4.41706665573451    0.70762412709912
H        16.42048926796850    4.67429045147958   -0.04164358896878
H        20.70071751267242    6.92317813455776    5.81903334209378
H        21.59252261069967    5.45446776474647    7.63233663095538
H        20.12970966286916    4.47539193125465    7.56279859153589
H        20.04557097594536    6.16943747231805    8.06722252980916
H        20.95162337685798    3.94184400656868    5.19099756321332
H        22.24047115611211    5.14340253433768    5.16130907635522
H        20.94261957950297    5.20720364750929    3.95677920404718
H        17.88774941884880    6.64821376194644    7.55521452684921
H        17.59000031716144    9.08452775603582    6.96205137685873
H        18.10550418362651    8.70857565189526    5.31456045328105
H        19.22774125020294    8.50740108708820    6.66955332497965
H        16.00776906776355    7.24522848903126    5.21354667518391
H        15.63555981438020    7.51368964663241    6.91838304300656
H        15.83068427521738    5.86859209750188    6.30662025010755
H        17.68334944778345    2.60582387208758    0.25166779529735
H        18.77375242558955    1.71036840535840   -1.72203991224532
H        23.85776535133766    5.87332591368633   -1.11591742318227
H        22.69232227961689    7.19869603077021    0.54258173388236
H        20.95881404637984    2.71861194330582   -3.59144491089589
H        21.70369691392862    1.57108661152066   -2.48910980622991
H        23.53149597047793    3.02120108803339   -2.17914475974874
H        22.83225564455670    4.12407819199540   -3.35465569370562
H        21.94889548490476    8.89322946289656    1.40506976255695
H        21.82486625646043    7.56852296217254    4.14857725769403
H        23.16341927662797    8.50029694367771    3.48105587072856
H        22.77865171558972    6.90803586399374    2.82143836565475
H        21.34382424779249   10.27018740255264    3.47094316579300
H        19.93559246016498    9.22089523318178    3.67253480402045
H        20.09340302588381   10.23640983668758    2.23184942435205
H        18.75410965525884    9.04097657792110    0.77355222680826
H        19.67804390813757    9.26697634500256   -1.57298232860064
H        20.90809037164776    8.07193909383209   -1.17452287725824
H        20.86455963873777    9.62707905093702   -0.32891985304105
H        18.78627996705591    6.58176019088548   -1.03355002309292
H        17.62043848155287    7.90251839159016   -1.06119760696651
H        17.67966754913618    6.80401463871968    0.32586020752793
H        14.78366549166308   10.11472587714754    2.50895537677399
H        15.55893205511109    9.90206167034880    0.92460147240652
H        16.36711297858924   10.85512426322296    2.19162009525655

