68
CSD_code = NISBIA | q = 1 | S = 0 | Stoichiometry = C21H40ClFeOP4(1+) | MND = 6
Fe        1.81753056518862    5.17788180374888    8.03682115058162
Cl        0.56992331214394    6.80411316466354    7.28923623897821
P         3.18061795789232    3.60397577391725    8.62855373491542
P         3.01939408957354    5.51716578140372    6.26277929142014
P         0.29439094472421    3.84507844520603    7.14034611438964
P         0.49902028114941    5.37684692955862    9.75352420668744
O         3.50185304940183    7.06566614460479    9.42957352248639
C         2.85085184001998    6.31940459500008    8.86176153482113
C         2.77694270315438    1.91736680389172    9.26479100375453
C         3.53000853877963    1.75538090292764   10.58841925873216
C         4.82604438749125    2.54986551032224   10.46783654248634
C         4.43565674372275    3.92711341076004    9.93490974652600
C         4.25859687382594    3.25629801486465    7.16860482311869
C         4.59547921706660    4.58155288919609    6.49480508692082
C         3.55294437681598    7.22510297444068    5.85075120190648
C         3.08381353594585    7.47078957257949    4.41442619020128
C         3.22241129061662    6.14297058238195    3.67746077359398
C         2.50860539513450    5.10952309424579    4.54800465691273
C         0.58436198415348    2.19449211737113    6.38167497829606
C        -0.62592407683919    1.95055420173687    5.48239303981056
C        -0.88590681175830    3.26536053436256    4.75480626429527
C        -0.85229452515297    4.38759092822584    5.79749062743030
C        -0.90177491548119    3.44346128054076    8.49189945797612
C        -1.15214891358250    4.72116072859801    9.28135882416935
C         0.16524912327913    7.02232255152308   10.49353859644485
C         0.57411418748295    6.91246735887784   11.96393081189194
C         0.22320418859030    5.49725604320903   12.41275884998299
C         0.83123917396157    4.56067867334890   11.36972389386046
H         1.69992875842331    1.79796726396897    9.39267732752000
H         3.11757372660406    1.18860860782501    8.52334747715627
H         3.72568068181945    0.70407743894301   10.79720293435492
H         2.93386834798346    2.15657374907933   11.40969660410097
H         5.33627406412096    2.62903635471808   11.42723919901754
H         5.49819078625166    2.04857558356957    9.76924937495744
H         5.28078754807578    4.48822983868121    9.52901909617638
H         3.98276441109971    4.53350761709580   10.72400249928551
H         5.15597223723498    2.71617593797605    7.48617607363769
H         3.69146955363066    2.61651898092570    6.48421349069444
H         5.10909714139866    4.43708281364147    5.54018402463822
H         5.23602133196854    5.18651455037258    7.14711624145468
H         3.12260695265000    7.94290019857778    6.55080111655253
H         4.64405859730916    7.27160002337287    5.92645073488391
H         3.66828445687071    8.25840025367261    3.94119858426583
H         2.03631261998759    7.77627156844180    4.42001862929945
H         2.78278959617392    6.18783348421635    2.68140811889571
H         4.27954973448258    5.88986895603335    3.57260782126877
H         2.75307209018408    4.07552655182800    4.29491442393405
H         1.42725551732252    5.24586826934175    4.47824917015472
H         1.49542006327958    2.25197723681823    5.77822571032774
H         0.72035175611965    1.42067446997384    7.13773205566274
H        -0.43778153980243    1.13767565373573    4.78103334297817
H        -1.49435719645518    1.67992529250067    6.08443724287999
H        -0.10576497071715    3.42141472669586    4.00744422381293
H        -1.84423837904626    3.24950099122715    4.23725139378501
H        -1.83693797615943    4.53769719015573    6.25032628655757
H        -0.54876896550158    5.34395460562022    5.37218358162124
H        -1.82443364633793    3.02802238282585    8.07747414837174
H        -0.43744535525946    2.68987329933118    9.13776289077526
H        -1.75833848809584    4.54872685396344   10.17587908193614
H        -1.64145748356472    5.47540601514049    8.65489240062208
H         0.70277645931566    7.80998024722362    9.96356174921036
H        -0.90723559708757    7.21848106399225   10.39131319558711
H         1.65001402423174    7.07059647146755   12.06415632827133
H         0.06463137025264    7.66250154214051   12.56756796164500
H        -0.86221465302957    5.38212011046296   12.43705406435250
H         0.60877090512450    5.28365614594748   13.40961184924014
H         0.41956272815732    3.54981618664348   11.40295281095366
H         1.91478427365851    4.49532066034057   11.50308631657014

