129
CSD_code = NISDOJ | q = 0 | S = 0 | Stoichiometry = C52H72N4Zr | MND = 8
Zr        5.09957013591681    1.52078958829728    0.42210174091311
N         3.50028518802626    1.02440496494622   -0.81737017516987
N         6.09971244005622    0.01509634000745   -0.50882973375697
N         5.76305858201905    3.42265471586524    0.15859993721399
N         5.32603503073259    1.91853416607227    2.44397421939290
C         3.81589662289969   -0.28512165509893   -1.18956541902166
C         5.07884342106402   -0.75939720830125   -1.07111323126402
C         5.41023121191207    4.04504628074982    1.35475838815132
C         5.21261833899938    3.31542344207294    2.48067562459687
C         2.42234960002375    1.69476983375021   -1.36414294340296
C         1.96264889185041    1.53522416595457   -2.69813159445583
C         0.83965901052343    2.23343190062348   -3.11610164584127
C         0.17289798982421    3.11880464550179   -2.29354694096894
C         0.63659134234974    3.31189905356218   -1.00437773231119
C         1.73540480222043    2.62125871123651   -0.53026852787511
C         1.79488574914138   -0.58502816865975   -4.03158984722215
C         2.64927867924835    0.64845641134468   -3.71901195942679
C         2.94978425055729    1.39129640926468   -5.02513057823494
C         7.41695107209857   -0.21228983001939   -0.91678596156825
C         8.38852896466600   -0.52897752993055    0.05410381056196
C         9.68666878616587   -0.81013804807759   -0.34114548969485
C        10.04623681570393   -0.76866612220863   -1.67372052156329
C         9.10319132434713   -0.42692278782797   -2.62758703714409
C         7.79176959555352   -0.14732765153965   -2.28016420407965
C         1.28007828987230    1.72901009846761    1.72085946176999
C         2.11903559967473    2.74348724991958    0.93349208219904
C         1.92594983145442    4.13990858346428    1.52833223215721
C         6.38189665498133    4.20471364873658   -0.83526168090083
C         7.78201922602419    4.14214897174083   -0.96990944836463
C         8.40865116957774    4.93165828678640   -1.92010650840678
C         7.67494573258424    5.77238622072676   -2.73819287926608
C         6.30001301915370    5.81708820878094   -2.62097310743394
C         5.63635248592564    5.03764940165285   -1.68385108188218
C         9.82102702306959    2.66274662920747   -0.66253826957337
C         8.56616495654499    3.25741617469943   -0.02758085274002
C         8.93901359503841    4.07829970431763    1.21329726166682
C         5.65361157464273    1.15282684532291    3.54187735746306
C         5.12244746306580   -0.16845142454292    3.59092453994548
C         5.48830101823499   -1.03042443862476    4.60994679723899
C         6.33860536372320   -0.62866217663511    5.62200676036888
C         6.81926947005416    0.66632512748058    5.61103764420414
C         6.51724224082895    1.56011507160366    4.59626577713663
C         3.50156619261744    4.73174245545938   -2.94737716815609
C         4.12882167244999    5.06900736229792   -1.59531722024737
C         3.63360916369172    6.43111308499298   -1.10383392537626
C         8.07785701034169   -2.09611681272460    1.97124000807901
C         8.00022936021382   -0.63587475428800    1.51252774301383
C         8.86922722853890    0.23892086191306    2.41454080175842
C         4.42805957590412   -1.93083064480492    1.88247117789405
C         4.05410673298486   -0.63768913505223    2.61427888632749
C         2.75136537057298   -0.86607099064727    3.39549029674976
C         6.42018785718299    3.78867001260303    5.72163138249130
C         7.14404115286731    2.93877950202020    4.67056332211864
C         8.63953483539567    2.90712541341122    5.00231538374858
C         7.22635920340067    0.09578096813631   -4.76255119757667
C         6.77242305851338    0.28508468657138   -3.31621161802177
C         6.39603468776766    1.75592877384034   -3.08433626512093
H         3.00940855771443   -0.93921332811688   -1.51339406072110
H         5.31845315969751   -1.78426781755712   -1.35535045927473
H         5.32868822652306    5.13119007737451    1.36980447346031
H         4.88427439306489    3.79333969141954    3.39942033812011
H         0.47720494067410    2.08869379459250   -4.12268006116210
H        -0.69664555193166    3.65096504296041   -2.64887686790516
H         0.11411445563147    3.99929776646565   -0.35697397112824
H         3.60706723350305    0.31971031573178   -3.30863295382788
H         1.56903727244321   -1.14824946950522   -3.12873791026652
H         2.31722149453511   -1.24128440515037   -4.72526924191447
H         0.85095138013781   -0.28759731838908   -4.48302109440429
H         2.03910644198508    1.63039549040455   -5.56781482083109
H         3.56645697251658    0.76458259793904   -5.66724673558042
H         3.48229671979157    2.31932240972337   -4.83399027013696
H        10.42524973877159   -1.08193624989250    0.39866801179237
H        11.05874378291422   -0.99577628936167   -1.97233854206844
H         9.41002529600988   -0.38106940389741   -3.66006079828945
H         3.19348852708621    2.47495056645864    1.04453277610917
H         0.22314241206794    1.97353303210626    1.62641260080660
H         1.54527299527143    1.74506164354612    2.77610259894189
H         1.43020707504072    0.72568204001771    1.32398202373309
H         2.39545438192263    4.89805016892366    0.90840044528302
H         2.37652816606655    4.17911732889207    2.51866689047944
H         0.87020205310388    4.37953006931039    1.63320006235338
H         9.48235873572398    4.90427573983667   -2.02156250042232
H         8.17745604804231    6.39160343304877   -3.46662843086457
H         5.73530080929814    6.47332585184324   -3.26631489436798
H         7.89848162313970    2.42419537690453    0.27997618219411
H        10.57594344059855    3.42706347983889   -0.83149766784775
H         9.58324521322225    2.18340429676795   -1.60862997470134
H        10.24713102402840    1.91061226988310   -0.00355671109273
H         9.51895954750813    3.48058980595692    1.91300646894956
H         8.04136735194070    4.43303134947515    1.71522680721290
H         9.53465008998196    4.94197703459488    0.92245736525913
H         5.08732161231934   -2.03342577549997    4.63200357466523
H         6.61041294140653   -1.30920966519483    6.41461921073311
H         7.46484985092194    0.98491848851616    6.41516221233766
H         3.81456184193993    4.28974688448805   -0.88423109763614
H         3.73629979471810    5.48751475493181   -3.69281656468836
H         2.42082068093764    4.66292679621239   -2.85258521713606
H         3.87565689524145    3.77118827132550   -3.29138402233542
H         4.04494792644387    6.66376899616964   -0.12347782410759
H         2.54718009923059    6.43516732676365   -1.03903883753452
H         3.93690828888113    7.21718367310478   -1.79179151924581
H         6.95874915085760   -0.27987438060027    1.61876209909094
H         7.51830045389958   -2.74352036970201    1.29928875715018
H         7.66999390391937   -2.19414661024422    2.97512936336065
H         9.11116438554509   -2.43567057347361    1.98220961511723
H         9.92388207280609   -0.00584582817098    2.30891640210946
H         8.58154278258269    0.08216144315890    3.45183055596874
H         8.72288048921167    1.28783356924223    2.16782024874529
H         3.88135288423381    0.15253715021818    1.84309204309329
H         5.32960428853022   -1.79963445677703    1.28917700471321
H         3.61716222305709   -2.22745863570307    1.21753311081101
H         4.59624736025514   -2.73935546190064    2.59060695393198
H         2.87564603670087   -1.68758634243614    4.09714244487062
H         1.93239088336575   -1.11650127645901    2.72427479609133
H         2.48299336169406    0.02003668822164    3.96585743919513
H         7.04427748309986    3.41788759411433    3.69335819249834
H         5.35308970214697    3.84717124311212    5.51761217773739
H         6.82526469427158    4.79874204233745    5.73820943280351
H         6.54510659167449    3.34953109440239    6.70931147328861
H         8.81539279200506    2.61384765255199    6.03413569142105
H         9.05973024536454    3.90184521317122    4.86453672236077
H         9.17011964760853    2.21665843076460    4.35359122076767
H         5.86978462719562   -0.32051888030977   -3.17677634062470
H         8.04943544747923    0.76359819460139   -5.00639035073000
H         6.40001179924786    0.32621327780236   -5.43207132032528
H         7.53407409351533   -0.93132974367794   -4.94464219505534
H         5.90312707518875    1.88875958039537   -2.10721198621219
H         5.71596180245482    2.09029338772960   -3.86518580884564
H         7.28586411926695    2.38330526026374   -3.11714460734725

