133
CSD_code = NISDUP | q = 0 | S = 0 | Stoichiometry = C52H72N4O4Zr | MND = 8
Zr        8.79200363216229    5.44634674432440   14.13940039617384
O         8.42712451624290    3.85812143167388   15.15684911184095
O         7.37726568316945    4.77263145917119   15.25120049309714
O        10.05110456649594    6.80299107547797   13.62512921866094
O         9.31105137623108    6.35636480903180   12.52924841368773
N         7.21408195770737    4.61748159303123   12.61721313415934
N         7.16420261897931    7.10992344841300   13.86257272451321
N         9.96806363987705    5.75378264679473   16.14215605346083
N        10.82136531241122    4.29043700038784   13.93044223884684
C         6.24391706284533    5.44836559474767   12.44256106626842
C         6.27468843304974    6.76164303376326   12.99667585415496
C        11.08603650837850    5.11167675821498   16.13926117776362
C        11.56689950538381    4.45333176648347   14.96956891100012
C         7.07767367328603    3.35225752514534   12.02219274288138
C         7.78866996870752    3.10788537267022   10.83458892410483
C         7.58647105364689    1.90448881607017   10.17655631656401
C         6.71864947124028    0.95378279172754   10.68664705534961
C         6.05113361621906    1.19380134040541   11.87130341477779
C         6.20071980410628    2.39515949975141   12.55267760801780
C         9.78451271184356    3.65217910428729    9.36824960928579
C         8.67934971595726    4.19335179979106   10.27418615012546
C         7.84312927889772    5.20931114455184    9.48381247136669
C         9.58260713406476    9.77155880789949   12.21964289500005
C         8.12251251054911    9.31099220211712   12.18872870291147
C         7.33104953987277   10.03935727655230   11.09944122164165
C         7.09331420294131    8.42784900085504   14.34429493372596
C         7.48935927330308    9.51089679060220   13.54642757294714
C         7.31612133710094   10.79416675682639   14.04960033838276
C         6.73992118132444   11.00740482809495   15.28610559469062
C         6.35978399019861    9.92930524610534   16.06732657839020
C         6.53774865480105    8.62922310910881   15.61971488044445
C         5.95016823284873    1.65733031073974   14.92066107043727
C         5.45387636010728    2.62814179500342   13.84581118920274
C         3.94253885338788    2.50343447348665   13.63736887233792
C         6.04187552903705    7.69696253103192   17.92545133598531
C         6.07959858065268    7.43173196136906   16.42094279239929
C         4.68440633083231    6.98737004155089   15.96045205827233
C         9.59134018452475    6.36416230288546   17.34998392687263
C         9.12143629866289    5.60177403761432   18.42914160024282
C         8.84036988739756    6.25661845895042   19.62166398026981
C         9.04745525459709    7.61471641948322   19.75980539172705
C         9.50654468424891    8.35723845239929   18.68509610180940
C         9.77466995708595    7.75293025139405   17.46649869375182
C         7.39008271245213    3.80923817627291   18.42542040874490
C         8.88624215861963    4.11354544934323   18.31143589014237
C         9.69315584658536    3.34468188866266   19.36063693420889
C        12.24320582670726    6.51116473135290   10.98069617566849
C        12.70846294530089    5.70602741352419   12.19703647701904
C        14.21107019615043    5.87520746996668   12.43506865138651
C        11.39696034522012    3.61925352118705   12.83874026427657
C        12.34727836236628    4.24888675715159   12.02210437159334
C        12.93908049836357    3.50354173066571   11.01006196662265
C        12.62972436682560    2.17032021409453   10.82719284004513
C        11.68451403828240    1.56216051816555   11.63580319627803
C        11.04777561279429    2.27194159245979   12.64218881332555
C         9.96278751837536   10.00397396384844   16.31390853808660
C        10.33530774984962    8.52214032321368   16.29194756951808
C        11.86459630249711    8.39510325516140   16.25768811284978
C         9.35003587895551    0.41680503765620   12.96898227583339
C        10.05777700931576    1.62382222989124   13.58320629125765
C        10.76335493909328    1.18186946422147   14.87276252269410
H         5.36069468289747    5.17069727680314   11.85443136376727
H         5.50533569432036    7.46777391007966   12.66131636776985
H        11.70747222364429    5.05389145162666   17.04116337129711
H        12.59891904638837    4.08236053016892   14.98864786991348
H         8.10161942667494    1.70525010120314    9.25071988115710
H         6.56682171821461    0.02373469554683   10.15881154840753
H         5.38547369504980    0.44083732999583   12.26485590248348
H         9.14141034309671    4.72007180736845   11.12496438126893
H         8.14007703365078    8.24275169832158   11.95026670374434
H         9.38384709552138    3.34213544753975    8.40464054984517
H        10.28816508073019    2.80921295925332    9.83126890525532
H        10.52130891804819    4.43081306572044    9.18928503491664
H         7.28121545262364    4.70785119920339    8.69657015599620
H         8.50018518344433    5.94592094418514    9.02784229451472
H         7.14664550262825    5.73622325821963   10.13123703256773
H         9.67336351826578   10.79747793308249   12.57182250015154
H        10.01074199123473    9.70538898141985   11.22167980574593
H        10.14573374392525    9.11190457430012   12.87630358463217
H         6.28496176416561    9.73765715984639   11.11476471448854
H         7.74220881791597    9.80156650536639   10.12081462366625
H         7.37646446214555   11.11771164630457   11.23419237525277
H         7.61943986359768   11.64192976427185   13.45446250928007
H         6.58847579958439   12.01439375851577   15.64617224201915
H         5.91153188599898   10.10888738182764   17.03123457271258
H         5.67210980879214    3.63543384922093   14.21450880934416
H         6.78285687492767    6.60676848709713   16.22233953498051
H         5.88858098879676    0.62299368314211   14.58797430548558
H         5.35310255970920    1.77003500833506   15.82296158147252
H         6.98266079073989    1.89862443050260   15.16319160563438
H         3.66439836407815    1.48582632319310   13.37274697714411
H         3.60644436188308    3.16625433676248   12.84174173005548
H         3.41841328111114    2.77219867779757   14.55178545885893
H         6.95697000055376    8.17706137280816   18.25833008641865
H         5.94067467209278    6.75484361869826   18.45788749738208
H         5.19325206338486    8.32500464137177   18.19114551567259
H         3.97880393955682    7.81419978903346   16.03429961118607
H         4.33487597154768    6.17345252848731   16.59101050925915
H         4.70272585877352    6.63170994653862   14.93329670202128
H         8.47166847029916    5.68984315754697   20.46294595951008
H         8.84865344418907    8.09914620039469   20.70449839913469
H         9.66449518961075    9.41690382985268   18.80548724683018
H         9.19582257589679    3.77484224815232   17.31766884227865
H        12.17169961218884    6.11191313612185   13.06039524329995
H         6.96384953718356    4.22270841187544   19.33737957165372
H         7.23157779455442    2.73305186946849   18.42245822058565
H         6.87844870741793    4.23139217970313   17.56336548783755
H        10.74930596881111    3.60209502408940   19.30047347135534
H         9.59120813076935    2.27434278902186   19.19607168365815
H         9.34515167338780    3.56842209011797   20.36648174627668
H        12.62971854823891    6.09607747413773   10.05188931011514
H        12.58059476061367    7.54148903738151   11.06976080903698
H        11.15586198244191    6.51018180819579   10.95286671682064
H        14.54024671346922    5.26487830463981   13.27436210341885
H        14.43650349787780    6.91558878101098   12.65843663892938
H        14.78383577450209    5.58432297878658   11.55742993767913
H        13.66915126794193    3.96979916175428   10.36621933997203
H        13.12203221868223    1.60197453714649   10.05177552553843
H        11.45146151807881    0.52076257515855   11.48276452433627
H         9.93427981577815    8.06767820213622   15.37140528998342
H         9.30340450872326    2.38174579528305   13.84986263435492
H        10.53515346068216   10.54055769510587   17.06867495673121
H         8.90340550012546   10.13505826351069   16.51189715427850
H        10.18442955607342   10.44847676293661   15.34720304885048
H        12.26322840401904    9.00599788867121   15.45139835636631
H        12.17126360003243    7.36688816751622   16.08272537327159
H        12.29485477828975    8.73528083285776   17.19904451287899
H         8.98528524181204    0.64603991075123   11.97246583883230
H         8.49899495985848    0.14178585953992   13.58647118615467
H        10.01653830365169   -0.44230872454209   12.91527370218728
H        11.14447996112248    2.03608610326426   15.42681881482746
H        11.59236685925211    0.51368814828917   14.64204697841872
H        10.05852079258608    0.65507588012831   15.51145904173150

