44
CSD_code = NISJII | q = 0 | S = 0 | Stoichiometry = C17H18MoN2O5S | MND = 6
Mo       -1.70462522907505    1.89688118881959    8.67232953636978
O        -1.78561993570887    1.50205984057282    6.88957088797090
O        -0.89381611933064    2.78949134859302   10.18578867151020
O        -3.19733052720100    2.63417132671362    8.88137080515863
O        -1.59470336066795    0.37610511580400    9.28627829143531
O        -1.37374320871265    3.93470780657863    7.86245628061862
S        -2.71485754392657    4.59881858285364    8.07538521512070
N         0.38720793408726    1.89127481143004    8.25767446165903
N         1.13025774785196    2.53234533136446    9.20404537454194
C        -1.09917483287707    0.66477307689169    6.14460422712323
C        -1.75715235655028   -0.05770479160813    5.13918342792499
C        -1.07012963565108   -0.93896559293499    4.33458069458377
C         0.29911578013163   -1.11217905483142    4.50431284727809
C         0.96777341064117   -0.39809631070910    5.47299395625602
C         0.30066904619284    0.50355605074212    6.31716910414540
C         1.02605328399088    1.24900665325685    7.32650151978608
C         0.38916401790839    2.95879003038232   10.18174255366651
C         1.02479876322547    3.64801640569788   11.31584688337507
C         2.38240151195287    3.96342642946495   11.29996944562714
C         2.95005227910414    4.61963298387112   12.37530502928161
C         2.17424458110274    4.96339236375789   13.47226333710767
C         0.82454234706304    4.64909816665752   13.49385031219285
C         0.24889053618104    3.99502952717515   12.42109804157618
C         2.52627169589851    1.25341498610501    7.30112859592374
C        -2.25737820925130    6.28756924174398    7.42694499228821
C        -2.69855466239861    5.15490179883708    9.81395933015003
H        -2.82232306711782    0.09177280280026    5.03419191869922
H        -1.59594550838297   -1.49617612525307    3.57390961880247
H         0.83806547641296   -1.80759393422753    3.87952248917342
H         2.02696637332601   -0.55701040072622    5.59741596596046
H         2.96974671725810    3.68767774336781   10.43941073240478
H         4.00180869865521    4.86464427618104   12.36245722517010
H         2.62270123080022    5.47430932390063   14.31149939689459
H         0.22206221408608    4.91331530258517   14.35028832339623
H        -0.80000083243118    3.73424087683520   12.42254955769537
H        -3.07273063285850    6.97687001183914    7.61103150331691
H        -1.34514475375695    6.63931368188181    7.89217669292405
H        -2.10182192222876    6.18733123204986    6.35881628739480
H        -3.43067890554784    5.94620121018955    9.93128979544261
H        -1.69970458965181    5.50786336598381   10.05192637618675
H        -2.96271630529751    4.29668547392833   10.42576737347729
H         2.89294648185534    1.43095402829584    6.29324101933857
H         2.90357642129550    0.29311836469456    7.64976865933398
H         2.88723558960188    2.02846544843980    7.97118324171633

