85
CSD_code = NISKAC | q = 0 | S = 0 | Stoichiometry = C28H47F3O4P2Pd | MND = 4
C         1.80188454174669    4.08629886630839    6.38605511156002
H         0.73236517552401    4.07237949600164    6.15006211872158
C         2.45153493097979    5.26996383679163    5.66774298290727
H         1.99764020958753    6.20941990413537    5.97674846205397
H         2.32121380846897    5.16197850899716    4.58394330359004
H         3.51854714152485    5.31045902284854    5.88959018154056
C         2.00648531108207    4.12263923311403    7.89492400145868
H         3.06351096678342    4.03654273020793    8.13750608866967
H         1.47366482987960    3.30975967792248    8.38400609820383
H         1.63853975941539    5.06434664363153    8.29870353741779
C         1.90228518673160    1.06175554757760    6.41722282764126
H         2.25466605854069    1.02409469041295    7.45480672047673
C         0.38114347631366    1.03215279760237    6.34971319056753
H         0.05432605152487    1.16462757386594    5.31806469093985
H        -0.06069478333059    1.82056391038817    6.95565892253330
H         0.00287643386889    0.07540072466694    6.70582731387764
C         2.50976068477221   -0.08427745216938    5.60690088133727
H         2.18868462523222   -1.05120203413977    5.99039757691567
H         3.60060109644491   -0.04309604530751    5.63590200454048
H         2.18101995321981    0.00360365472722    4.56173276942770
C         4.69551738036112    2.59865996480889    3.85656445033347
C         5.07626282177040    2.62364838187976    5.19275982617222
C         6.42290082583445    2.62037922047453    5.56065083661948
C         7.35033002976607    2.59094434451782    4.52536379328402
H         8.39027044711564    2.58864889107008    4.78737020758436
C         7.02385991416048    2.55785883309444    3.17440517071430
C         5.66361295777743    2.55956370205394    2.86052078838548
C         6.84967021997442    2.64794240388730    7.02358145831642
C         8.37115719565556    2.60625700533926    7.19878680256063
H         8.84588517076017    3.46988167127859    6.73959030173692
H         8.79192012839181    1.69679008233073    6.77680816471732
H         8.60666171901049    2.62234994882145    8.26099322540713
C         6.26323656891767    1.42871138272100    7.74870722784074
H         6.58787391971651    1.42113974249536    8.78704247644161
H         6.60469814817743    0.51149545907908    7.27300945762723
H         5.17876422059903    1.44662830010833    7.72905104276295
C         6.33902500707852    3.94351252635782    7.66747853228807
H         6.63244089395214    3.98370468607424    8.71433220919797
H         5.25747327705175    4.00211536635846    7.61085841136197
H         6.75901803991756    4.80699575282985    7.15563218851524
C         8.09249088654540    2.52313890543361    2.08819037852855
C         9.51518176655841    2.49649845741346    2.65620448702092
H         9.67844739107479    1.61353469232988    3.26937153039263
H         9.72291813898887    3.38709851398382    3.24420906839218
H        10.22576514459118    2.46797577972186    1.83263967551056
C         7.90904910174865    1.26316491121897    1.23088262125741
H         8.68842571668743    1.21131023831463    0.47360417526099
H         6.94604115164861    1.26691370598583    0.73150309017213
H         7.97388486254162    0.37413202300588    1.85504191037018
C         7.95845283654254    3.77995448640802    1.21839343047265
H         8.09501808612139    4.67212127022947    1.82614130247392
H         6.97887735361410    3.82598722245795    0.75493967354766
H         8.71182682086770    3.77577907413391    0.43352000750367
C         3.43803206972218    0.84609418598643    0.40346552628088
H         4.23242341867169    0.74828340448028   -0.34582976524698
C         3.59455943714727   -0.22175041730722    1.48705129015244
H         2.81999322491975   -0.07089413862526    2.25278885646020
H         4.57517652124208   -0.15053324339587    1.96199585257944
H         3.48161800460824   -1.22219318677491    1.07287507721810
C         2.05966552964148    0.77224549142747   -0.24018357815312
H         1.88351810293510   -0.22054999958877   -0.65081509571409
H         1.95597070826791    1.49750672545889   -1.04470556816891
H         1.29195111138373    0.97257106813412    0.50786596095385
C         3.35539592479206    3.85851283043270    0.14720036389033
H         2.30366890646575    3.82338095402101   -0.15673481567521
C         4.25842596379826    3.79505104426404   -1.07774666624724
H         4.13233587273385    4.69251283241755   -1.68099192347549
H         4.02204134678518    2.93165639859488   -1.69628967663047
H         5.30203172272006    3.72854119372747   -0.77776577325141
C         3.58433748932524    5.11191820718875    0.99293418472142
H         4.62584042541599    5.17115383751141    1.31088158788869
H         2.94594383480994    5.07850954745821    1.88385161201653
H         3.34253548362241    6.01109817040012    0.42980880453551
C         0.23986435498868    3.12958365258296    2.73831858923297
C        -1.28123111310040    3.22590267274216    2.38910378677695
O         4.06869086582755    2.64096411270909    6.15425925348773
O         5.23143663962869    2.51184750734602    1.53733459676840
O         0.66027020573933    1.96669516586036    2.87019247844552
O         0.87133136774302    4.17612403397773    2.85302573593278
F        -1.57037345532204    2.56535277048898    1.25279057428638
F        -1.70968618722614    4.48257290338770    2.22635931476787
F        -2.04125201177989    2.67790212748996    3.35629825490412
P         2.54082883088944    2.58868399793052    5.59326043240259
P         3.62017933362403    2.44726222516331    1.31086661974164
Pd        2.77986246813099    2.49374569067944    3.37727740196289

