58
CSD_code = NISLIM | q = 0 | S = 0 | Stoichiometry = C25H29ClN2Pd | MND = 4
Pd        1.80147014173158    2.60813746964149    2.51696731588141
Cl        1.92082266676774    4.69382762832648    3.66241055512322
N         3.47496479437144    2.01756740887674    3.57431971819423
H         3.41371517687087    2.72630791443936    4.31636013376502
H         3.41797775437617    1.09194592757165    4.00358629666642
N         0.25388139785192    3.32570351361351    1.58364344676720
C         2.91805107577076    1.21577781724077   -0.04594797430636
C         4.16792339151841    1.68451464963378    0.38023219878350
C         4.88530855245087    2.52469583474418   -0.46880770074587
H         5.87572399151835    2.84704011672404   -0.18142179723216
C         4.37244057278079    2.94025395061516   -1.68266298666890
H         4.94838063608258    3.59961752236339   -2.31516408185438
C         3.12685313042546    2.49384484790941   -2.09023621134125
H         2.71730589629713    2.80922863891392   -3.03914541467651
C         2.41863173316264    1.62655536883209   -1.28118877941242
H         1.45318165442678    1.25869727276426   -1.60038306881308
C         2.11026717456652    0.26846491878129    0.76671596742816
C         1.53465164366492    0.72211747270139    1.87163277020742
C         4.75744607320640    2.18167830014820    2.86732199929281
C         4.81743853128485    1.20866708910996    1.65853069097565
H         5.87199463555765    1.02324790375795    1.44159628002210
H         4.36258737059676    0.26209126149108    1.96043194574542
C         4.85403250214642    3.64485111580008    2.43631644080223
H         3.99531696692925    3.90483698604650    1.80224684205856
H         5.77395323693617    3.83113672457481    1.89020920377793
H         4.83372824765108    4.29421898664544    3.30997801343401
C         5.90073446332611    1.84129415311462    3.83413723653822
H         5.82784084560668    2.44751136698011    4.73542611606876
H         6.86553040897303    2.03771185705219    3.37422584002450
H         5.86625237714626    0.79062357159897    4.11922685970122
C         1.97047164686178   -1.12903390955844    0.21921334020340
H         2.95109865159769   -1.59799886537233    0.13008456326005
H         1.52431609149972   -1.10829365366909   -0.77444709388643
H         1.34590942125143   -1.73223269419667    0.87376533567381
C         0.69611647780537   -0.03177581691141    2.79944707904259
C         1.25550429673738   -0.88422732012975    3.75839010308116
H         2.32740653678756   -1.03966306411897    3.76896038712825
C         0.45723625737828   -1.54226689681568    4.67383987556195
H         0.90840814793243   -2.19617523046967    5.40717762836894
C        -0.91728854061636   -1.37261048734521    4.65244673264936
H        -1.53913207181178   -1.88588058056239    5.37092382802364
C        -1.48956031046988   -0.54764019987435    3.69676831125005
H        -2.56323066286705   -0.42409462533622    3.66613670888965
C        -0.69658023525982    0.11467782760423    2.78070959924048
H        -1.14717473949706    0.74098640827785    2.02054334865170
C         0.39243431583303    3.97393653966761    0.42841358884896
H         1.30146108667079    3.77505672628956   -0.13349120174124
C        -0.56227600435322    4.85428080083911   -0.04477460394912
H        -0.40285217542114    5.36224765474199   -0.98356092636488
C        -1.71600571638810    5.08929180293493    0.69734992653688
C        -1.84306951964150    4.40360246600829    1.90310546038445
H        -2.71099949551018    4.55249194038905    2.52707151033087
C        -0.84403122664521    3.54212774333950    2.31064779575284
H        -0.91077220344384    3.00985364737445    3.25824833973600
C        -2.75736128691253    6.05677269783009    0.23967813019812
H        -2.55622213685346    7.03798260797295    0.67060048817520
H        -3.74696660056304    5.74482567106659    0.56505067889656
H        -2.74864704809055    6.15539122002501   -0.84295679014596

