75
CSD_code = NISNIO | q = 1 | S = 0 | Stoichiometry = C24H37BN10OPW(1+) | MND = 7
W         4.63634475132348   10.93115245112985    6.08379851802114
P         6.41068580669872   11.23687858686152    7.85983879070095
O         2.42167948860009   10.98671279207355    8.02091507774542
N         5.60419370189068    6.65551431853465    7.30432355426870
N         6.43543123384236    6.22804417964652    8.25123834491493
N         2.59146710937908    8.02119202612309    3.96717677874814
N         4.56646545445057   13.08394169392450    6.22579061334082
N         4.72282154480053   13.85108626413346    5.14007190213310
N         3.21954876314487   11.45661308564959    4.53441845135454
N         3.51829859455755   12.38748420430751    3.62019798589421
N         6.17010564413365   11.27749036122123    4.57633179076608
N         6.01759662662014   12.28659009256869    3.70817309461574
N         3.32555466598809   10.86454353164431    7.26032296480834
C         4.95679913508586    7.93742735918849    7.47714357010920
H         5.36917143518073    8.30544556241647    8.42497107930972
C         5.35442665634006    8.86033662023229    6.33494356818708
H         6.40821314818652    8.68112806270363    6.09901965907844
C         4.52167309069633    8.82766567587410    5.13689104481098
H         5.05270684499810    8.88622665322835    4.18598335396865
C         3.27163303331839    8.19074909022231    5.10998316426298
C         2.69621164081534    7.55586409235176    6.33836207971745
H         2.68044339899368    6.47336990424250    6.16213972683030
H         1.65537623982239    7.85966453229237    6.47154808680492
C         3.43543972395752    7.82649946111356    7.65202071101861
H         3.10135163347858    8.78473278680259    8.04823234853099
C         6.90401492210204    5.06820819882118    7.83666858665497
H         7.59867309010051    4.51654409278810    8.43685862051148
C         6.37278465400221    4.73669554829209    6.58264373238269
H         6.56943816935446    3.86178870284349    5.99864024553513
C         5.54331500623034    5.78794359102813    6.27175907952584
H         4.94750124007949    5.97467682809739    5.40169559573571
C         3.07801719899851    6.75238060452318    8.67865913446689
H         2.00614382109681    6.74180522976832    8.85708851880453
H         3.57952159351562    6.95066194313604    9.62164444077284
H         3.38117559273210    5.76479082203916    8.33805377414013
C         3.11387165279258    8.49068815721121    2.70168256101071
H         3.49753505713851    9.50728710597009    2.78906027358658
H         2.32130004668977    8.49578280673234    1.95848946685851
H         3.91775607110088    7.84057456514953    2.34413113657930
C         1.33248990188000    7.30973155868419    3.93815714328497
H         1.44551862206840    6.28845191144513    4.30778848332798
H         0.96476661478783    7.25857766458780    2.91766166767756
H         0.57903577933619    7.81319442846749    4.54727318932329
C         4.52629467328506   15.13667451282706    5.46121765153212
H         4.59976047445968   15.91219299479576    4.72684271006425
C         4.23380002000428   15.20801989429725    6.80839919424884
H         4.02227480356554   16.08243960982609    7.38679178499580
C         4.26335010782916   13.88609829010992    7.24281540266957
H         4.05991043531035   13.49325858532455    8.22227829632902
C         2.44586276173720   12.62975739135362    2.85347130022781
H         2.47834848927537   13.34881189453538    2.06119169098602
C         1.41142912258346   11.82492596063849    3.28719331031783
H         0.41699699234320   11.77188275165545    2.89715685337794
C         1.94709293161219   11.11379356401832    4.35735659892648
H         1.47216699612091   10.39797659872734    5.00179099645716
C         7.07606543592428   12.35456454242172    2.88815825844748
H         7.14073475486771   13.09899614756981    2.12204976757123
C         7.95472626548765   11.34936280943158    3.23331210125235
H         8.89737845545635   11.11734379111969    2.78463358672779
C         7.33849141405184   10.70265270676691    4.30073481775271
H         7.69892843943019    9.85623651588261    4.85461204943932
C         5.77056684752114   11.24482687384215    9.57351005532873
H         6.55043429586177   11.56197410946885   10.26508459227659
H         5.44114125539151   10.24134432035084    9.83634437395676
H         4.91665131460076   11.91287704837836    9.65601560448110
C         7.32773637876148   12.82760773572549    7.78379956348910
H         8.10914895554695   12.83652199740650    8.54299633089988
H         6.65996044871427   13.66974182718973    7.95074229037037
H         7.78806985558543   12.93263552757875    6.80124666482128
C         7.84086464920481   10.10244096695629    8.05090252364516
H         8.46757925013446   10.13984336845362    7.16211406671272
H         7.51975817897844    9.07763573489196    8.22117227016073
H         8.43047152183988   10.43072318513628    8.90650385280453
B         4.80971005936243   13.22036548101142    3.73945182852227
H         4.87499601482888   14.03713611424177    2.89301770105915

