37
CSD_code = NISPUB | q = 1 | S = 0 | Stoichiometry = C6H20CoN6O4(1+) | MND = 6
C         3.02419957824774    9.95939415309705    6.60263205326347
C         1.72817832818639    9.27855922390588    7.02273866063249
C         1.84965029412939    8.69485010873938    8.42423873914521
N         3.23256041464111   11.23054464094548    7.31686844824499
N         1.84983280430386    9.74445172033279    9.45761316858611
N         4.50664981646710   10.40390623901819    9.59964607562194
O         4.47096676326087    9.55167419520160   10.47721113190404
O         5.48611113737799   10.64089697485762    8.90492117322705
Co        2.99764940654870   11.41639593436859    9.32708585645720
H         2.61298122742691   11.93452575357747    6.89974019396303
H         4.19167206962548   11.51701501044957    7.10608058585045
H         3.86886183773285    9.29949040154795    6.81432560856263
H         3.00377145843144   10.14797163572811    5.52455575579970
H         0.89907297594435    9.98774501578399    6.98032465107347
H         1.51385262300410    8.47140536115368    6.32413782341361
H         1.01793996349851    8.00685577511345    8.60579058268706
H         2.78045218037217    8.12825730979250    8.50464801722893
H         0.88590666973866   10.07813181411079    9.57148644920326
H         2.10754073637308    9.27854725002817   10.33086341754786
C         2.97181001266639   12.87460216882433   12.05083221972639
C         4.26779037345939   13.55523053861595   11.63020556975912
C         4.14612527619925   14.13827091794138   10.22846650329576
N         2.76315511294617   11.60303299380891   11.33733646264860
N         4.14567850790057   13.08806116970286    9.19577063951520
N         1.48832024877342   12.42856800279212    9.05495924052349
O         1.52329132126723   13.28081320769896    8.17758920199585
O         0.50965679557350   12.19178772669291    9.75036158663004
H         3.38276795950111   10.89919299049270   11.75465991182577
H         1.80407355147434   11.31670995983331   11.54848571358951
H         2.12717579964106   13.53448643008867   11.83896652983543
H         2.99241948195982   12.68661730420078   13.12901070396650
H         5.09689948670555   12.84606790771804   11.67277427897307
H         4.48224775440063   14.36271354699963   12.32836969944918
H         4.97786218569502   14.82608191572300   10.04637360962182
H         3.21534404849017   14.70486516960184   10.14785775785603
H         5.10954824338348   12.75421850874248    9.08193247626391
H         3.88788355465224   13.55356102276985    8.32233950211185

