35
CSD_code = NISQAI | q = 1 | S = 0 | Stoichiometry = C6H18CoN6O4(1+) | MND = 6
Co       11.96114349876309    6.88788803602017    4.64615439038345
N        11.85719154561237    5.21009565212864    3.29016018073037
N        13.98537842568863    6.24327698081597    4.71867072364816
H        14.63528160169118    6.93696519037602    4.35268009967825
H        14.23345630861274    6.15788899883467    5.70723369408383
N         9.89632160722409    6.89330409330165    4.38034895081887
H         9.49941671910841    6.56322500180221    5.26395118501688
H         9.44325970214540    7.79044619436900    4.20394727614336
N        12.24333569268675    7.88415009256921    2.75529360432842
H        11.35743637689846    8.19794196922192    2.35994994493153
H        12.82552814977287    8.71841246774446    2.83149966283585
N        12.10672547513126    8.44164755358436    5.44694442299691
N        11.76418852635429    6.05416562546300    6.20674518036528
C        12.83387842001948    4.24867575963428    3.82156203835788
H        12.96563579469322    3.39316600812818    3.14778947834453
H        12.46221555979500    3.86621039491458    4.77410077088410
C        14.18427366301236    4.94322534075549    4.04046990598538
H        14.82645437146246    4.28575264660411    4.63139820778945
H        14.67315973215546    5.10228735130472    3.07866509665819
C        10.46924949209902    4.72703015776335    3.38245246834589
H        10.33823702614803    4.21592970095050    4.33676305836235
H        10.23300670056010    4.01953474406853    2.58033019703193
C         9.51362875754741    5.92232155190736    3.33563067838337
H         9.56210317877125    6.41551159246587    2.36271031180046
H         8.48870151128619    5.56923279095161    3.48033060935582
C        12.17645565514503    5.58931128333347    1.89885966226426
H        11.24926863528586    5.64426832070219    1.32782338885740
H        12.80243811761334    4.82757978080018    1.42547779106028
C        12.87519943804979    6.95100335387577    1.81064981496199
H        13.92961821806645    6.86798670439557    2.07057008477106
H        12.81797776168063    7.31263810340962    0.77807030101303
O        13.19583940751932    8.91895493272438    5.30681254045478
O        11.11780910994787    8.88858696777389    5.94702194395630
O        12.58334880733806    6.33852599616163    7.04039217414709
O        10.86573701211426    5.25905866114339    6.30224016125323

