65
CSD_code = NISVES | q = 0 | S = 0 | Stoichiometry = C24H39NZn | MND = 3
C         2.59405501339484    0.79614674167760    4.77332485924538
C         2.08043044367379   -0.16209142586307    3.79104542239790
C         3.10050322253339   -0.49421087687265    2.93264706586876
C         4.29211940491503    0.17573582262447    3.34140839313684
C         4.01814156705894    0.93343559764068    4.45207779995690
C         0.70312825701240   -0.75449601859183    3.81803956366160
H         0.29290427236290   -0.85050463418212    2.81329272963034
H         0.02065081847453   -0.14126751081708    4.40299520149955
H         0.72632158265489   -1.75298806648867    4.26115324084834
C         3.03158648194132   -1.41053736719086    1.75276706501098
H         2.01368371341974   -1.75027829297061    1.57745971283012
H         3.65978855412930   -2.28698632511328    1.91613739072712
H         3.39158316933725   -0.91320599967335    0.85064814264457
C         5.60216510778165    0.03367935530436    2.63567844561691
H         5.49948620747160    0.26147808112445    1.57416935999374
H         5.96914527828490   -0.98998554002895    2.71977537050291
H         6.35007142065401    0.69828316671635    3.06042826573283
C         4.99680641751268    1.68604980922688    5.30224549400145
H         5.77352052805649    2.14668369206579    4.69370977706827
H         5.48778076409817    1.01067355786408    6.00719258160845
H         4.50391479705474    2.46957493673658    5.87520225592496
C         2.12670408610024    0.78232853010720    6.21731255506722
H         1.38272778858216   -0.00807768703700    6.33935863953073
H         2.98348261869604    0.51310245471484    6.84176008073524
C         1.53919964377975    2.08603015386332    6.77384791056517
H         1.43784235581507    1.97461209528648    7.85657101167846
H         2.23390405468715    2.90815315087224    6.59278007743704
C         0.16198377856500    2.43546973381053    6.20570433235277
H        -0.41907704543071    2.99981005611757    6.95223412473547
H        -0.37619187498630    1.50533653895581    6.01001893944437
C         0.43964873140286    4.61821161914692    5.23920751034311
H         0.53852707696326    5.16000480428425    4.30139514695745
H         1.35540461155284    4.75029824663501    5.81141546391709
H        -0.39524005605238    5.04028528132394    5.81448564005385
C        -1.02703175785697    3.05948053585465    4.21320077554952
H        -1.88725273663848    3.40036233922385    4.80418001375228
H        -1.17715060900333    2.01626340734956    3.94086426648331
H        -0.96648594183585    3.64560707138811    3.29947771778511
C         2.28033904677351    3.41777504825803    1.79656952164290
C         2.25156786355836    4.85588508312399    2.11467867671309
C         1.04562887766144    5.36840398316638    1.74207834638880
C         0.25618220543235    4.31982465817598    1.14549083085623
C         0.97903772412616    3.16495020821754    1.15034060953498
C         3.52215148390369    2.88172302212760    1.09956905798513
H         3.63743929394840    3.39086455509804    0.14057080445849
H         3.43751776615522    1.81509632240133    0.91181036451399
H         4.41981933785996    3.05541605728938    1.68803982160090
C         3.42364088566590    5.57798371201796    2.70066013618057
H         4.06923278053816    5.96433029084336    1.90955512399515
H         4.01667844666059    4.90746929568068    3.32299469062872
H         3.10528065214952    6.42074724224042    3.31205157020376
C         0.55536027771736    6.77234158656873    1.89663728148116
H         1.28475472594662    7.38720616976183    2.41796989237414
H        -0.38426656975584    6.80262202854745    2.45183273478569
H         0.37185788899439    7.21691124970893    0.91835723144190
C        -1.12451013018711    4.53177211499038    0.61224424624232
H        -1.62301886816878    3.58227071069350    0.43100804084081
H        -1.08602703207746    5.07858136989451   -0.33086967805518
H        -1.72942462415735    5.11687887102799    1.30584759583946
C         0.60696083364190    1.84161129936862    0.56121091185587
H        -0.46226413815980    1.65561732777952    0.65430942870439
H         1.14295394780105    1.03452856659952    1.05888232878808
H         0.85736738046276    1.81232987481859   -0.50110514328949
N         0.22177667845996    3.20279976729370    4.95536279315097
Zn        2.01368151889201    2.44769254921877    3.61999043683566

