47
CSD_code = NISVAO | q = 0 | S = 0 | Stoichiometry = C16H29NZn | MND = 3
C         9.31944680702562    1.67073891906446    1.13635173659663
C         9.43732744923491    1.91926599018778    2.57164230681056
C         8.34056639095359    1.24672214764300    3.18736700740172
C         7.61644398391145    0.57742653453163    2.20066927300714
C         8.20284046644016    0.83368220374152    0.94782175187113
C         9.99049126464971    2.48206866195876    0.06344457952258
H        10.36226715893354    3.41569780111386    0.49187895780791
H         9.23556883674171    2.75124679875278   -0.68131162647898
C        10.14458405215154    3.10280906409185    3.17560092086901
H         9.53036111464214    3.99988322839740    3.06148303474031
H        11.10636992497438    3.29229220015487    2.70137208748804
H        10.31677924486794    2.95384849574545    4.24004052921257
C         7.97257844119110    1.32311642634023    4.63780765718386
H         7.27033205533887    2.14192601090813    4.81029554786029
H         8.84821428709153    1.49496486650135    5.26163991069056
H         7.49422423962700    0.40144025524668    4.96426467696020
C         6.38550425853226   -0.24268037259636    2.44199167251096
H         6.55485790755450   -0.98692737700412    3.22106771427843
H         6.08159459343843   -0.75904583121316    1.53484401926072
H         5.55816976373490    0.39212232723979    2.76391785518769
C         7.65041720384613    0.38954317249912   -0.37569286598027
H         7.50897453060336   -0.69128368980542   -0.41092596283533
H         8.31609894086941    0.66723796567630   -1.18967967785742
H         6.68001977344077    0.85636830494831   -0.55604635891236
C        11.14429227583095    1.78653289398974   -0.67340262156871
H        10.80844244345369    0.81060628467896   -1.02514487424216
H        11.39956783449248    2.38413989340114   -1.55277812807374
C        12.41048480329320    1.63894335867389    0.17096718264786
H        13.29628127445104    1.64028226938145   -0.48613534244249
H        12.48893510291035    2.50888290090590    0.82719479409133
C        12.74498327283463   -0.73749577538330    0.20335461133661
H        13.72364687210393   -0.64204293607987   -0.28693854268769
H        11.98490816611673   -0.87214438844435   -0.56177609258619
H        12.75380697712877   -1.62255311240638    0.83597189809439
C        13.47948576098760    0.58560098073170    2.02837854507584
H        13.52026722966771   -0.31395138666517    2.64057477490055
H        13.24794284407691    1.43125392515510    2.67353441348651
H        14.46683800693879    0.74671581711483    1.57479480608641
C        10.15713046112343   -1.97285187922650    2.59976406759871
H        11.11461897599203   -2.45607938861559    2.79928731963784
H         9.56448335335948   -2.08858760970837    3.50638790250433
C         9.45511445892653   -2.73041142245784    1.47363801863854
H         8.46416280461533   -2.32289560626167    1.29386130504556
H         9.34138425383254   -3.78341434643212    1.74103167915593
H        10.02020027338619   -2.68215396929018    0.54433360281678
N        12.44133788135828    0.43753819534576    1.01280349134252
Zn       10.37645198329837    0.01072119737272    2.19135244194031

