37
CSD_code = NISWOD | q = 0 | S = 0 | Stoichiometry = C13H17ClF2N2OPt | MND = 4
Pt        2.07890204881824    6.29643208762817   12.88535585501458
Cl        3.89751497485002    6.60655401053668   14.13080870521649
F         4.61867305403347   10.58406729671568   10.70583587820612
F         2.78341406570640   10.84806152808457    8.81193014568716
C         1.48546272751336    4.97856523927111   15.57520446742447
H         2.45099635244476    5.39645935331657   15.85544072914956
H         1.25538359124301    4.13345709374846   16.23664647387642
H         0.72464930316364    5.74945025606337   15.70460191636064
O         0.53193000199759    8.96601489570550    8.77304445186251
N         1.52766583895695    4.54977277203824   14.17372720328133
N         0.49494896235592    6.12171736695909   11.67017780566609
C         0.45761213087813    6.98848463198030   10.71491302809838
H        -0.33821299064165    6.98551941006316    9.97495351794008
C         1.50447297947117    7.95998892988259   10.65628343231724
C         2.48488146936395    7.82634542228164   11.66571549309363
C         3.54064491974890    8.72638221089762   11.67360623195383
H         4.32528427716170    8.68489966471867   12.41243307116143
C         3.59638085370017    9.71094254574931   10.70483189116734
C         2.62792920973848    9.84371310834693    9.71242989822700
C         1.54962701276037    8.96546162666981    9.66521491734412
C         0.47124805054405    9.95326327460030    7.76171593464171
H         0.41166971239794   10.95884488808807    8.18389067099849
H        -0.44165108187960    9.73896761142013    7.20789539473201
H         1.32783075855466    9.89254827185985    7.08679676254361
C        -0.55176445485017    5.13549250180416   11.76330261853151
H        -0.98582949080822    4.95584974152064   10.77075947550738
H        -1.34945406360989    5.52638663924325   12.40924476064542
C        -0.03811011309516    3.81832038651748   12.34431861398716
H         0.85866909486533    3.51720001185987   11.80013265745237
H        -0.79998013774227    3.05313676740141   12.18504331724754
C         0.24630958445814    3.91382108941746   13.84305783106961
H        -0.55649797195066    4.49479212773830   14.30622305126560
H         0.22099137249800    2.90456690420350   14.28239655657042
C         2.61499143972317    3.57975275532410   14.01334150875849
H         2.44881312845669    2.69958764001675   14.64869325620908
H         3.55882161212481    4.04553430115930   14.29393844334665
H         2.68698177704724    3.25434563716883   12.97569403344363

