33
CSD_code = NISWET | q = 0 | S = 0 | Stoichiometry = C12H16ClFN2Pt | MND = 4
Pt        7.56673998703157   14.50821153839681    2.02257462665767
Cl        9.43827508158243   13.62770997816094    1.20503520033653
F        11.59951697799106   17.38946797995970    4.26376397679984
N         5.95942320372213   15.37443930170392    2.84598320854451
C         8.51556386124706   15.86668459358335    3.13747844421807
N         6.37459281209820   12.98072548236557    0.85964729879740
C         9.86989973268740   16.13688886297035    3.27367089961421
H        10.61848553926903   15.58973597470658    2.72104267302323
C        10.27935888751445   17.13609141120887    4.14143046033178
C         9.39542705062996   17.89343261035689    4.89658432049962
H         9.77339393738590   18.65714402546443    5.55771643099670
C         8.04610499702089   17.64008629793289    4.77327562856448
H         7.32936061442336   18.21149217166816    5.34532949859306
C         7.60785780051468   16.64029112693320    3.90335583073957
C         6.23131706723831   16.30873019670490    3.69409750998781
H         5.43844463097201   16.83329868598363    4.22578806285725
C         4.58245420705138   15.04171309463821    2.58375716413551
H         4.24473078756228   15.61284594418682    1.70842420193047
H         3.95648620895981   15.33881748302782    3.43642854556000
C         4.39576618896164   13.54952000889062    2.30839967228529
H         3.32828904246399   13.32576295054701    2.35188189065790
H         4.88957236648542   12.97878367577538    3.09653267343026
C         4.91760172480255   13.13656756899762    0.93251127724403
H         4.43750524340316   12.19151320591765    0.63299152341300
H         4.61720588727700   13.90160074521322    0.21050272936487
C         6.77438774310223   13.00571859963715   -0.54978570497875
H         6.24743831021861   12.23033326351956   -1.12124748183849
H         7.84693276667124   12.83500063207841   -0.62486945513620
H         6.54920092805427   13.98117906213466   -0.98237407199866
C         6.76409610674194   11.69012466942093    1.43374515562774
H         6.26361808983573   10.86319549553154    0.91150877656917
H         6.50157931215619   11.64593648847280    2.49070517815007
H         7.84227290492423   11.56465687391082    1.34221385502192

