37
CSD_code = NITBID | q = 0 | S = 0 | Stoichiometry = C17H15CrNO3 | MND = 9
Cr        1.14694076308449    5.87791543613628   18.69573891865929
O         1.82796676154603    8.13370827555876   16.87943953210515
C         1.01321882432115    7.26195344830622   19.87441707888430
O         0.99612501891196    8.17249695827892   20.58535029449577
C         1.23518539965531    3.78988885393591   17.83002781051237
H         2.03704708166169    3.24307928928029   17.34778576338760
C         1.05711218274871    3.67506625810445   19.22374874103882
H         1.71920669421770    3.03500008487953   19.79520300530824
C         0.34082924287671    4.53898894108534   17.05873915021329
C        -0.75682136660484    5.16200691781854   17.69721599043985
H        -1.49635013897423    5.67796270203778   17.09587053257160
C        -0.93044335780707    5.05210191197519   19.07509474657329
H        -1.80893748523750    5.47708558655313   19.54646352010193
C        -0.02462794840618    4.29492160090038   19.84607269403037
H        -0.20754560011991    4.14714230852706   20.90329839642582
C         1.53853303274942    7.24344596942757   17.55814812513584
O         4.02580769159274    6.28485778019837   19.32953607077314
C         2.91397085840310    6.07966282948049   19.09018351635237
N        -2.18577037238073    0.83968686756438   15.29274135739517
C        -1.12019317731716    1.19323481724980   14.58612783062078
C        -3.07865304424967    0.03887750214132   14.73875967567377
H        -3.92402600774786   -0.21682492124821   15.36480138904668
C        -1.85456134542118   -0.08688627588429   12.70631292677745
H        -1.72203794043339   -0.44837601488850   11.69657159635987
C        -2.96518962281987   -0.45614891398253   13.44951846776813
H        -3.71934268271148   -1.11012812174684   13.04077412428737
C        -0.91654214946143    0.75207813320510   13.28149194724996
H        -0.03739104635616    1.05864485091676   12.73464894452285
C        -0.15808283666278    2.13123838471089   15.25411734487709
H         0.86188958856158    1.91094771685214   14.93200369215635
H        -0.23314165338529    1.99027808874012   16.33335243668859
C        -0.50570518335406    3.58174164938202   14.90177166642717
H        -1.52984365645705    3.78437819303581   15.22271879250103
H        -0.46315067423375    3.70944651842852   13.81798825896786
C         0.45316315246440    4.58354911259942   15.56122590574512
H         1.47768188137471    4.35728783933108   15.25714572987755
H         0.21167911597310    5.58838942110293   15.20619402605078

