40
CSD_code = NITBAV | q = 0 | S = 0 | Stoichiometry = C14H16BrN4O3ReSi | MND = 6
C         3.58635909611796    4.06990538220561    6.67307398030552
C         3.83916427741987    3.21087346328833    5.62370745000453
H         4.67635608301755    3.12089569946879    4.96506525430515
C         2.45222020510560    1.35541548591651    4.60888960112645
H         1.51361781898463    1.60495762513190    4.09236643759100
H         3.25852810339471    1.29029102042118    3.87652497445065
C         2.28062395825518    0.03750176907851    5.33026662970345
C         3.14162881932520   -1.01739408529228    5.06463139390112
H         3.94060956996142   -0.89100582472327    4.35038081219891
C         2.96359436902540   -2.22204604942777    5.72346665019269
H         3.62365871862193   -3.05427377153191    5.53483893290036
C         1.92110850921756   -2.32389958861119    6.62891284079859
H         1.73358414050578   -3.23687438620080    7.16932919808661
C         1.11852001510793   -1.21980089064130    6.84983880310171
H         0.31433323874278   -1.27182823828480    7.57115527799875
C        -0.73701490708817    2.09888137506640    5.34119059380655
C        -0.59835993089179    3.34136681185585    7.91225194873402
C        -1.38361914289843    0.67814952878214    7.65674362495485
C         5.99822185826808    5.89515947471547    6.25986733511654
H         6.60261645707159    6.70560185485349    6.65364547823255
H         5.60252216836142    6.22061386009040    5.30226108605943
H         6.66282120939517    5.05611526795113    6.07610980805800
C         3.42908668334947    6.90310925794397    7.78739841758404
H         3.91830703289120    7.69544457064848    8.34569427732582
H         2.56375510753044    6.57897431952950    8.35716087847861
H         3.06782237951549    7.33021607902083    6.85609894020617
C         5.30844063196949    4.73379233981787    9.10433074450374
H         5.80070860985820    5.50324292959173    9.69131543852767
H         6.03370212035141    3.94583784135163    8.92010281388475
H         4.51393480491317    4.31101144461746    9.71221316969726
N         2.75464281403336    2.41286519799432    5.53682519487628
N         1.89203553023059    2.76597066485445    6.49221371981300
N         2.37180235001476    3.74258828056319    7.15814486421180
N         1.28749975711627   -0.05626791160635    6.22106366486712
O        -1.26777606035446    2.28857062011881    4.33677769682469
O        -0.93766128731438    4.26629500608096    8.48776359506716
O        -2.23079744943660    0.02210278545263    8.06227594722731
Si        4.60716126662870    5.44328948702201    7.48458210775195
Br        1.40375955160621    1.15431664071259    9.17859544388863
Re        0.12268152207289    1.75003466217559    7.04042497363660

