94
CSD_code = NITCIC | q = 0 | S = 0 | Stoichiometry = C44H39ClN4O2P2PdS | MND = 4
Pd        5.36083375391358    3.30083848454829    2.24704012288053
P         3.45865960098371    2.07878245381236    2.37910119655708
Cl        4.99106377426180    3.77438108675112    0.07029393090568
P         7.20375955464989    4.59355657312891    2.13197294802554
S         4.62223374084909    5.00077654232952    5.63855722381289
N         5.68375626378128    2.97768961942903    4.21857577839282
O         6.76064810523347    0.92162890357094    2.33003385706794
N         7.44058544073979   -0.22058174090195    4.21095400513719
N         7.09950234366704    0.61659606853358    6.40179929401643
C         6.35156166654867    1.81080247901432    4.47091643926134
C         3.46686023453266    0.89510474155431    3.75885879567131
C         5.46564930273590    3.49601016385315    5.42416532361095
C         2.00956157491012    3.12153547882920    2.69216586805882
C         7.31315509139386    7.08509084236503    0.75179945999849
C         8.82098806508755    3.70395280289824    4.16138077585818
C         6.48529506233850    1.70075075281618    5.84947595665690
C         3.08180118210706    1.07139880404840    0.91782513205443
C         8.05735809731617    4.78659206346941    3.72779495897749
O         8.09614290316485   -1.38490239608928    6.03827670089916
N         5.93141854322378    2.76712620510437    6.45334513884459
C         1.61380865692913    0.06467235798475   -0.68540889164317
C         8.38326054495876    5.84720711039984    5.85590458137662
C         6.83715769617057    0.85013458079815    3.56063456538479
C         3.90261228994298   -0.74033728398215    5.96063056480628
C         5.48628560230424    6.68278503909582    2.27329319771613
C         9.13035547448747    4.76400172282332    6.28684520595874
C         9.35342308645958    3.69288827147858    5.43542206838965
C         3.98711462685853   -0.25946384582172   -0.86486995635964
C         3.16694131675469    1.34953761334783    5.04164007292799
C         1.79689224031139    0.84824329514068    0.44070306330616
C         4.18027905656402    0.52541068605254    0.25609813468920
C         3.97953426644143   -0.38757362146647    3.58784304921374
C         6.77428758975732    8.32576550417954    0.45386970447500
C         4.95957639410083    7.92450622999333    1.97625786939119
C         7.57091593831676   -0.38628479744598    5.58615882388302
C         7.20927777879212    0.49745907411303    7.83769913361352
C         7.83815370083645    5.85913266727585    4.58357047381762
C         3.38275034278415    0.53255466083271    6.13521802231611
C         4.19007871022004   -1.20155851694870    4.68653981638513
C         5.60633396875840    8.74749451657006    1.06624510540877
C         2.70372432911901   -0.49142599889144   -1.33434192038757
C         9.76137982605791    4.76802809372809    1.01175048154053
C         8.54605788811966    4.08741149938048    1.02942667284180
C        10.77126612877565    4.33987424679398    0.17076693308966
C         8.35889905844474    2.96359637753330    0.23219056676161
C        10.57758024374704    3.23097764285799   -0.63957962153528
C         9.37780025707790    2.53972831290189   -0.60306087103231
C         7.96985834921752   -1.30086836969957    3.39787027906859
C         6.67486360051424    6.26608480623164    1.67185113265520
C         4.93534183188683    5.23923273255828    7.40812310186367
C        -0.11727001441521    4.83783364657136    3.13781654357741
C         1.08264292004713    5.33829711233121    2.65926108740096
C         2.14682471771696    4.48298697391590    2.43748544960262
C        -0.25439660456040    3.48304336472757    3.39901731153822
C         0.80522107444678    2.62194037422352    3.18013324939631
H         8.21352615120154    6.74979974169228    0.25770847847360
H         8.98020953122297    2.86786543239453    3.49061244050041
H         0.61556076090351   -0.10709307341852   -1.06135569296130
H         8.21362816151136    6.68497544344867    6.51741965775777
H         4.08787589136386   -1.37228926916338    6.81666353117983
H         4.98307176037903    6.01688588098518    2.97884715380227
H         9.53656143896479    4.75097328214810    7.28763236181568
H         9.93322145636662    2.84491020133083    5.77068795879159
H         4.83633243091355   -0.68253583132556   -1.38099121517341
H         2.77946604229377    2.35122780880666    5.17740567221665
H         0.94623903971189    1.29467487576318    0.93567082752906
H         5.18024203207485    0.73745075973430    0.62444264447866
H         4.22048204158712   -0.73887366566124    2.59362576900783
H         7.26623887773480    8.96296184393201   -0.26641068433523
H         4.04207803670788    8.24884978963328    2.44504357276572
H         6.21348296870976    0.49625898785420    8.28202140077524
H         7.72418493286959   -0.43538568753994    8.05882808906421
H         7.76961106935827    1.34567138882361    8.23167718741222
H         7.23753762929607    6.69702818360703    4.25766365005959
H         3.15829042677170    0.89576732482409    7.12759936304940
H         4.59254318304556   -2.19501648730112    4.55176563201837
H         5.19127000431177    9.71499404879832    0.82483339649365
H         2.55256967906555   -1.09817279400651   -2.21523068959419
H         9.91224844612340    5.61815077715611    1.66464982936943
H        11.71391992772514    4.86752080803567    0.14915911737441
H         7.41583443398559    2.42822478618716    0.28284177865535
H        11.37117676513491    2.90157228715957   -1.29436191119268
H         9.23720848889803    1.66831210486213   -1.22496806353720
H         7.80640216608240   -1.03093976946364    2.35693553430681
H         9.03352414920408   -1.42959706627078    3.59717343564715
H         7.45765593546672   -2.23263102005571    3.63694782954994
H         4.42874945913642    6.15248033965780    7.70120695855822
H         4.54418951438453    4.38376055836765    7.94795604947800
H         6.00687539655890    5.32040771061848    7.56103132853279
H        -0.94903699678209    5.50418569377372    3.31332193093522
H         1.18789410763074    6.39448195888818    2.46103116424053
H         3.09576039145643    4.85883499453064    2.05413128526335
H        -1.19029117623502    3.09771165478085    3.77719349243281
H         0.70849825506233    1.56674998779254    3.39985182707706

