80
CSD_code = NITGOM | q = 0 | S = 0 | Stoichiometry = C27H48ClOP2Rh | MND = 5
Rh        1.02709769243945    4.35100182343540   12.09847777153318
P         1.90522004565486    3.36562805914629   13.97672393671221
P         0.66425980279455    5.23904856222555   10.01348227709810
Cl        0.06790171029452    6.06184602640584   13.20694544919069
O         5.55023097372926    1.55992983358337    9.34545477143014
C         0.63308896923075    2.47678278610559   11.33699755884416
C         2.00350676858714    2.71240115783979   11.01260037096376
C         3.03337788085724    2.08035082367087   11.82379007113441
C         4.21232153119847    1.70223695241208   11.27655612876634
C         4.50590689907833    1.95500217344663    9.86218832651558
C         3.51365260982555    2.71241386471253    9.09242236112263
C         2.34196863163156    3.09721202595185    9.64990663431943
C         3.87784331997618    2.98025166856603    7.65966687916849
C         5.28053746209326    0.96650251552990   12.03499648738137
C         2.70363048309975    1.83726521931237   13.27501325494762
C         3.38949718701783    4.30533764039221   14.69509926897633
C         0.78930026919619    2.70233135379499   15.35558257634112
C         1.37909998199144    1.54955374791897   16.16518524451475
C         0.41054676284896    3.86234162013985   16.27546381606182
C         2.95176717632733    5.69234058284699   15.17061334966029
C        -0.48569839989603    2.22622536410875   14.65087273987510
C         4.14141341670224    3.58893814141992   15.81309084067884
C         4.31573784499565    4.50962936828353   13.49258738553666
C         1.31334057737294    3.90031781130707    8.89432352361511
C         1.80633307334638    6.69675748004633    9.60044174775685
C        -1.09285030857831    5.55196272202481    9.37917000270584
C        -1.94986489000186    4.44832435371371   10.00921478213857
C        -1.57859691240105    6.89259643573604    9.92880168301580
C        -1.25198222978997    5.50750481802867    7.86090670177252
C         1.57192062782844    7.83146115784452   10.59914118773584
C         1.69876959748536    7.22806984522577    8.17401300943736
C         3.21938372303208    6.15809140706315    9.84366593707847
H         3.12028214732582    2.58874720112789    6.98210552297272
H         4.82315428672253    2.48294232304140    7.45368661893113
H         4.00380640442413    4.04450668574472    7.45929502234066
H         6.08075167272114    0.72274105330912   11.33940258406279
H         4.89391961902572    0.04148324892243   12.46147130409333
H         5.70078655026187    1.56962704017406   12.84056588653592
H         3.59044714004922    1.56041651788738   13.84266070925687
H         1.99188361623541    1.01079904566833   13.35364021121081
H         1.61716161184462    0.69408003896128   15.53711895148562
H         0.64463640645715    1.22511361409962   16.90215201582258
H         2.27684669861426    1.84504605601056   16.69835518418727
H         0.13605307964096    4.73612862087887   15.68616607542726
H         1.22778813691885    4.12158222603467   16.94317278077697
H        -0.44415940701447    3.58538074225215   16.89164650479027
H         2.30226019272190    6.16243483061700   14.43407666722378
H         3.82814173610351    6.32560205431062   15.30526387025659
H         2.42218424022499    5.65572463505249   16.11676950393048
H        -0.31519340390796    1.31052746760847   14.08724962656352
H        -0.85424610515772    3.00052354779581   13.97291841131750
H        -1.26318453873620    2.01895320237726   15.38462394112490
H         4.39226521006898    2.56347879180808   15.54988001024008
H         3.56811559145956    3.58537940513895   16.73677399103530
H         5.07402594534964    4.11827287439298   16.00755424930161
H         4.76689811579164    3.58196315845319   13.15549893217437
H         5.11624614408544    5.20343284852167   13.74569790482275
H         3.74601608708494    4.93886879899929   12.66324920878595
H         0.47880588621450    3.25338126981495    8.60995069177365
H         1.72960780676588    4.31979980264174    7.97973563674840
H        -1.75332364206086    3.47869796813363    9.55488881335726
H        -3.00676013933872    4.66872367114605    9.86687074499026
H        -1.75637407098500    4.38595830646219   11.08341131535691
H        -1.33800189381825    6.97413148800105   10.98786078881102
H        -2.65975168879333    6.97016606520772    9.81884999625734
H        -1.13229323070261    7.72681558447224    9.39389445999595
H        -0.93357633390415    4.55277233913267    7.44852162857606
H        -0.69376125137582    6.29790071549412    7.37007883774475
H        -2.30510355352137    5.64040590604383    7.61370656704411
H         1.56826080826932    7.44719857903491   11.61800165249463
H         0.63104683195342    8.34364935928428   10.42782003514564
H         2.37209597421199    8.56596598161806   10.51406534538333
H         0.77397911169641    7.77950385413600    8.02425416384556
H         1.75914727371161    6.43132997158058    7.43520456974654
H         2.52448872881685    7.91495252802302    7.98903065819366
H         3.25888370655220    5.63929730022322   10.80502331753362
H         3.93481743258524    6.97876914003279    9.87350164449138
H         3.53420122699014    5.46552530053668    9.07005335151976
H         0.41583288035505    1.71968392856993   12.08102004044590
H        -0.08017131990702    2.45725756898283   10.52156397584207

