50
CSD_code = NITGOO | q = 0 | S = 0 | Stoichiometry = C22H24ClIrN2 | MND = 8
Ir        0.46563319566083    2.72653458480207   13.46101285233591
Cl       -1.66868331045339    3.69263796086224   13.33057657167662
N        -0.34169898554141    1.39358162721488   14.77474677611461
N         0.64720825784094    0.37515458477588   10.16571698907310
C        -0.46321368770182    1.61047380120831   16.08314574871904
H        -0.06540791536175    2.54199226193241   16.46007856934945
C        -1.06952945249737    0.71433566027574   16.93816355630114
H        -1.13676569697718    0.93433423643380   17.99120594432163
C        -1.59203158921213   -0.46636381986510   16.41480562834744
H        -2.07144899676601   -1.18545474465265   17.06142068646196
C        -1.49550441399991   -0.69002220855435   15.06001425835973
H        -1.90238564889116   -1.57999651614322   14.60704149949864
C        -0.86645939808297    0.25637549741180   14.24472153960911
C        -0.72776435677725    0.17499191156512   12.82458306300762
H        -1.09950604572366   -0.68001610281659   12.28003903678614
C        -0.16776950099875    1.25598464340248   12.23186646991216
C        -0.01614287565428    1.35409394647421   10.78429709384384
C        -0.55095188571512    2.44549032600325   10.08903751501120
H        -1.09506759280947    3.20153323998224   10.63206806661459
C        -0.38515872283468    2.50787506882576    8.71970238892642
H        -0.79258496437900    3.33431103689657    8.15415961392239
C         0.31750664746085    1.49409340870833    8.08177628997571
H         0.47771445366857    1.50911725508436    7.01469228801808
C         0.80588316449738    0.45458795167128    8.85734206431231
H         1.35703467784137   -0.36332404756282    8.40933086396682
C         2.65195222583724    2.73790551042259   13.81286392467697
C         2.42886928159685    3.15153194525281   12.45948060849011
C         1.64308617895416    4.33682685775018   12.50524663501199
C         1.54662569138815    4.75470755023402   13.89481731693363
C         2.17084180418787    3.78857554528067   14.68659562475992
C         3.56029650111914    1.62389552854799   14.22744770797745
H         3.52383095764391    0.81070706593497   13.50642531668907
H         3.28538834161548    1.23051400705381   15.20430632654689
H         4.58952155447835    1.98449027176028   14.28543317295258
C         3.03552337413358    2.50844457745916   11.25318661380437
H         2.89760412848517    1.42883442580133   11.26319374236842
H         4.10681687507738    2.71652558526602   11.23379770167661
H         2.59411295833985    2.89648413008610   10.33896524604015
C         1.28719934236020    5.22418907656217   11.35306499344495
H         0.31626694059401    5.68747472673128   11.51542944384277
H         1.24867250649464    4.66166702521209   10.42322301860005
H         2.03128258172682    6.01667315008409   11.24858547595003
C         0.94294031337880    6.05046308505989   14.32599873165284
H         0.99488036648003    6.17121083534239   15.40521465901437
H        -0.10301405600785    6.10085312003882   14.02268463922629
H         1.47047423528891    6.88192854388270   13.85688627695258
C         2.42483159971585    3.85367178223290   16.15912218854986
H         3.39471420990572    4.31932967517397   16.34665643904320
H         2.44410378734069    2.85834450133319   16.60021256431333
H         1.66527294326681    4.44492991356468   16.66771625702356

