71
CSD_code = NITHEE | q = 0 | S = 0 | Stoichiometry = C22H44N4Ni | MND = 2
C        -1.53192619521084    2.34061121387426   13.89480198563516
C        -0.46789362969449    2.16559345342705   12.80233507553206
H         0.03357769563573    3.10815777248683   12.59022854759493
H        -0.91499640271433    1.79534460222512   11.88311884411773
H         0.27685832848204    1.44807761337192   13.14821785874785
C        -2.60636705755455    3.32857138593090   13.43393729175160
H        -3.32742323690508    3.50836053278246   14.22849092309142
H        -3.13679910211526    2.90742969117779   12.58327561776160
H        -2.17542503945471    4.27829111996409   13.12535106436295
C        -2.19005613221033    0.98886735886967   14.18203145956621
H        -1.42747528073452    0.26797692239805   14.57234057675407
H        -2.62364517124745    0.58011664087505   13.27244386901350
H        -2.97178967372913    1.09863780023174   14.93104038438865
C        -0.11650675515473    2.04574315121907   15.89042932595194
C        -0.68457650142853    4.24657112248637   15.35490379025531
H        -1.63916727058264    4.74799194826726   15.53534503310767
H        -0.19603079389036    4.72707778668211   14.49863985884932
C         0.21374006937588    4.24684240992284   16.59085364428006
H         1.10758133214984    4.86061992746977   16.45319009870212
H        -0.31966068649094    4.60291913457494   17.48024970205073
C         1.29402360978144    2.34566506299561   17.89217044585916
C         0.28562723048759    1.98575041390873   18.99198908637453
H        -0.28942582132621    2.86117197861394   19.28778668036299
H         0.79697127906905    1.59697470433820   19.86847046953591
H        -0.39812312185635    1.23028711003055   18.61412698703667
C         2.09277559594030    1.10355845003614   17.49236452986164
H         1.42058422703878    0.37690781965779   17.00033968015411
H         2.53974858877725    0.64163791845856   18.36843560742305
H         2.88004079747511    1.37249757173889   16.79212700034367
C         2.26583375871543    3.41299947379782   18.40436422842029
H         2.93978538381504    3.73113235811686   17.61191861363306
H         2.86386970183307    2.99121557495331   19.20833819869431
H         1.74258665651359    4.28281120921920   18.79457353384155
N        -0.87821267027659    2.82272061957985   15.10835434372955
N         0.56159503883033    2.83597358279893   16.72907492852547
Ni        0.00000000000009    0.00000000000033   15.46718142937063
C         1.53192619521178   -2.34061121387371   13.89480198563336
C         0.46789362969395   -2.16559345342643   12.80233507553433
H        -0.03357769563595   -3.10815777248603   12.59022854759687
H         0.91499640271305   -1.79534460222429   11.88311884411895
H        -0.27685832848264   -1.44807761337093   13.14821785874990
C         2.60636705755513   -3.32857138593073   13.43393729175008
H         3.32742323690546   -3.50836053278190   14.22849092308966
H         3.13679910211642   -2.90742969117880   12.58327561775932
H         2.17542503945398   -4.27829111996306   13.12535106436215
C         2.19005613220876   -0.98886735887158   14.18203145956689
H         1.42747528073400   -0.26797692239816   14.57234057675431
H         2.62364517124647   -0.58011664087548   13.27244386901471
H         2.97178967372822   -1.09863780023255   14.93104038438866
C         0.11650675515412   -2.04574315121857   15.89042932595139
C         0.68457650142999   -4.24657112248298   15.35490379025496
H         1.63916727058322   -4.74799194827030   15.53534503310826
H         0.19603079389190   -4.72707778668697   14.49863985885064
C        -0.21374006937435   -4.24684240992600   16.59085364427971
H        -1.10758133214942   -4.86061992746736   16.45319009870240
H         0.31966068649208   -4.60291913457094   17.48024970205045
C        -1.29402360978001   -2.34566506299535   17.89217044585682
C        -0.28562723048756   -1.98575041390871   18.99198908637628
H         0.28942582132620   -2.86117197861417   19.28778668036522
H        -0.79697127907037   -1.59697470433884   19.86847046953651
H         0.39812312185679   -1.23028711003079   18.61412698703802
C        -2.09277559594222   -1.10355845003369   17.49236452986272
H        -1.42058422704018   -0.37690781965618   17.00033968015519
H        -2.53974858877870   -0.64163791845775   18.36843560742437
H        -2.88004079747600   -1.37249757173808   16.79212700034393
C        -2.26583375871418   -3.41299947379740   18.40436422841867
H        -2.93978538381419   -3.73113235811701   17.61191861363120
H        -2.86386970183115   -2.99121557495192   19.20833819869206
H        -1.74258665651306   -4.28281120921938   18.79457353384146
N         0.87821267027544   -2.82272061958519   15.10835434373163
N        -0.56159503883108   -2.83597358279299   16.72907492852746

