61
CSD_code = NITHON | q = 0 | S = 0 | Stoichiometry = C25H24ClF9PRh | MND = 8
Rh        1.36290896083822    3.46519972847530   11.83438036460574
Cl        1.96457231035914    5.56194115732064   11.01909290570170
P         3.29448659648373    3.82291461141099   13.01878292823947
F        -0.98866525767191    5.56090180045237   11.59833621549466
F        -2.60940233084483    6.69793738719581   13.40502803986037
F        -0.41617957656805    4.35496069288259   16.85808326091514
F         1.20283253146398    3.20298001097066   15.05010636128986
F        -1.71252711865022    8.35056960700470   15.60830830694112
F        -3.41301056244611    9.46931101537573   17.40344497038161
F        -5.02065543464203    7.88169754531155   18.92599155372218
F        -4.93491159751844    5.17333271753587   18.62771008557602
F        -3.26489158167357    4.06562200630558   16.79712843147101
C        -0.25580737402867    2.02158669057641   11.42467943733160
C         0.94215238555863    1.32762050803365   11.79688095115272
C         1.92706081815902    1.55891079337577   10.75927387672148
C         1.36403412715388    2.44741383093489    9.81741977429527
C         0.01606122771322    2.76276995897101   10.23713598308178
C        -1.58567353099214    1.86308833433023   12.09285253980135
C         1.03130249947300    0.28584370203625   12.86750143195527
C         3.19872819903454    0.78569145568243   10.59403940563422
C         1.95327152230998    2.90366404412692    8.52170578762095
C        -0.96465423367205    3.49461316921615    9.37795050515919
C         3.39374829780754    5.29101750846163   14.10162443297965
C         4.01525771201766    2.51147399502729   14.08712923958635
C         4.72304949078643    4.11326966790496   11.90831687305355
C         0.22302151591374    4.38457643186622   13.25376969299088
C        -0.78832326080576    5.27844115187584   12.89569992159208
C        -1.63851742370334    5.86870868548692   13.81941500546712
C        -1.53995142333770    5.57474486869904   15.17696901858302
C        -0.56075708377023    4.66216821092558   15.55703869264008
C         0.28069321708650    4.09561954754042   14.61374254573532
C        -2.45053376505903    6.18378879407117   16.16381898236262
C        -2.51273299224886    7.56607470621165   16.32893949684183
C        -3.37423190736862    8.14489583548076   17.25479028770162
C        -4.19330461068479    7.33487827348105   18.03623815674827
C        -4.14570835988331    5.95188199364141   17.88594997595745
C        -3.27948190585168    5.39069479306657   16.95466590599615
H        -1.47672859660124    1.72534840767457   13.16665982614475
H        -2.22341207780997    2.72639558812669   11.91823260073063
H        -2.08484654365888    0.98142138897746   11.68640753188243
H         0.50723355747650    0.60153579056889   13.76673418662899
H         0.57302754886790   -0.64012873378573   12.51424881499369
H         2.06494560743495    0.07707871794188   13.13018487620984
H         2.97748709779225   -0.15402439422843   10.08355267484084
H         3.92327120194205    1.33192446833466    9.99422636397825
H         3.65095975730033    0.54510051737394   11.55333267981508
H         2.99986850075984    2.62222055534839    8.43822396238541
H         1.40321693615341    2.45333321400537    7.69388080792538
H         1.87769434802257    3.98623427038136    8.42782209069432
H        -0.55951014022812    4.45307444887199    9.05967729060622
H        -1.17863749086211    2.90035159843159    8.48751469431194
H        -1.89589552756922    3.67768739589995    9.90592293282447
H         4.43561454337629    5.46754653654256   14.36678335793173
H         3.00161213725729    6.14969119265003   13.56061122896852
H         2.81293946545097    5.13739114977496   15.00693176870046
H         3.30474724939877    2.19062737625346   14.84112063293741
H         4.29381554496784    1.65826701859973   13.47296962054425
H         4.90722978268083    2.90359168741770   14.57337676927849
H         4.84966957083902    3.26317332990244   11.24070728161607
H         4.53130095595663    5.00402214767054   11.31531773457141
H         5.62733649031330    4.24533109601651   12.50121892629236

