51
CSD_code = NITHIH | q = 0 | S = 0 | Stoichiometry = C19H25ClF4PRh | MND = 8
Rh        2.07280181560085    0.78231216563141   11.12685843758165
Cl        3.52925775488864   -0.06422111389130    9.51287325089232
P         1.96480937999517    2.43786969548701    9.55418430422469
F         2.77179486825156    3.85066756550838   12.01305489005572
F         4.89971801824730    4.86357242735969   13.32923273522166
F         6.78316713803575    0.56211073743296   13.63044414269001
F         4.65655137552671   -0.46739429587928   12.32235380278431
C        -0.14527095864336    0.38153769343694   11.37753019455679
C         0.47645026299921    0.82952946049073   12.60159024233691
C         1.41702165790606   -0.18210683543716   13.00880027605710
C         1.46246864951852   -1.16957532420987   11.98908611447718
C         0.49360541987993   -0.81315923744456   10.97496804739318
C        -1.38518263116485    0.96705075981854   10.77791198233381
C        -0.02205321397264    1.94435891401910   13.46790404828182
C         2.07672616731611   -0.25681645572061   14.35063617469533
C         2.19460326682243   -2.47150389987854   12.01360835779804
C         0.11677729902418   -1.70424120998934    9.83271062876299
C         1.38247838768333    1.76877294260491    7.94851784632317
C         0.78645061989465    3.83948813159823    9.72351986051703
C         3.49717154479178    3.28468202140004    9.03162367257020
C         3.66542218165430    1.66182677668059   12.05797772804631
C         3.77467073247026    3.01014255993682   12.37796690981527
C         4.85684345333537    3.54335968887518   13.06294149639468
C         5.89413091879227    2.73290196028219   13.48169096424759
C         5.80389025715846    1.38081725574642   13.20666624665160
C         4.71437560685732    0.86513391053845   12.51796683880536
H         6.73864935157704    3.13791499756342   14.01244977003492
H        -2.24901622170894    0.40913575964422   11.14578746056477
H        -1.51030124168475    2.00682760046935   11.06885106700630
H        -1.38421478368369    0.90194786857144    9.69150674177930
H        -0.58139327525571   -1.21128344415231    9.16042531229011
H         0.99919168234793   -1.99654528474167    9.26523150325254
H         2.65967390053057   -2.66792357345868   11.04920588915032
H         3.30935967678537    3.80676929169694    8.09387592933422
H         2.97736612542033   -0.86408662157107   14.31502094547679
H         1.38495588765882   -0.71344699246981   15.06145311273520
H         2.34102553950202    0.73196532787095   14.72109307894800
H         0.75932477730634    2.29504904442619   14.13784100709039
H        -0.86062831589536    1.59450083767941   14.07369733102342
H         0.42908249149202    1.26108577612071    8.08266654072633
H        -0.35374190510779   -2.61131426603202   10.21625602397417
H         1.26166151140461    2.58166322213622    7.23348416695159
H         2.11315656510122    1.05253746477541    7.58145235319711
H         1.49095782916449   -3.27895840893973   12.22615818894444
H         2.97225038461157   -2.47455881648375   12.77165888475739
H         3.81611884937113    3.99968335272011    9.78450676057247
H         4.27494271371166    2.53782388345447    8.88716896643595
H        -0.23097044709885    3.45635631025126    9.70949511488475
H         0.95400446655634    4.37834698592741   10.64953563087440
H         0.92356909573553    4.51728800462353    8.88236267272864
H        -0.35880463069800    2.78820538551645   12.86989635375928

