55
CSD_code = NITJAB | q = 0 | S = 0 | Stoichiometry = C24H25IrNOPS2 | MND = 4
Ir        5.69136686299521    1.71395413574911    0.05745095407681
S         7.92078245942459    2.52078042271298    0.53667429961018
S         5.46963499706183    3.22563247479376    1.91049208313768
P         3.45189179851785    1.19313031566440   -0.03998704735647
O         6.46254694247816   -0.02944696479991   -2.26200367665600
N         7.83841803990171    4.23948324658716    2.56742424998146
C         7.15173014211603    3.42211332543502    1.76375881331746
C         7.17591840581460    4.98093601968933    3.61976777398189
C         6.67499639056585    6.33587241421202    3.12624062488395
C         9.26786878129008    4.41169007209941    2.41330435460629
C        10.05080754467846    3.37969008305250    3.22034381176465
C         6.15024276598493    0.63841398408950   -1.36523710583274
C         2.46230778851744    2.04985678337701   -1.31243016750944
C         3.11229874311133    2.38842473972626   -2.49511905432554
C         2.42140536718629    3.01374584114862   -3.51667142556577
C         1.07649948448601    3.30986868255291   -3.36161756432269
C         0.42592330594018    2.98078107268600   -2.18360704107987
C         1.11256137551515    2.35217078556530   -1.15979242485834
C         2.53861891855907    1.57427905670883    1.48733189361716
C         2.26771382719696    2.90962379932377    1.77870638243054
C         1.67496131955743    3.25300206851763    2.97806785414980
C         1.35919637194046    2.26890776228965    3.90182138761023
C         1.64138637710450    0.94186017394686    3.62362903842352
C         2.23574420998612    0.59260625581059    2.42385028364637
C         3.00961067639397   -0.55745968754707   -0.32424783538533
C         1.76779212622369   -0.95610918394436   -0.80449886515025
C         1.49153961396004   -2.30187034585400   -0.96934733778320
C         2.44618448327435   -3.25479403625134   -0.65340393258306
C         3.68549347958984   -2.86189015063351   -0.17412563718111
C         3.96707450475865   -1.51787123576287   -0.01314557578326
H         6.33032557209855    4.38963159880763    3.98346790617868
H         7.88565719334966    5.11235760766233    4.44013764185845
H         6.19985109342357    6.87427222717451    3.94161269345490
H         7.49818839917080    6.93476029244766    2.74233365794566
H         5.94709448088079    6.19552209848193    2.33085231146617
H         9.51678768482855    4.31058149294151    1.35331707825975
H         9.52276918063020    5.42355641403111    2.73751139712978
H         9.81651067782462    2.37856683940322    2.86766640250242
H        11.11704961913082    3.54941079781828    3.10079466994614
H         9.80110568380115    3.44550968069773    4.27741342041267
H         4.16716953368159    2.15877018794138   -2.58947678385200
H         2.93095585939815    3.27487990801618   -4.43221115245052
H         0.53544756153683    3.80214061212440   -4.15622024784061
H        -0.62159058549285    3.21573290886020   -2.06077631149367
H         0.60245979319029    2.10691462411069   -0.23801928041939
H         2.52677890692791    3.67263412710218    1.05668795892363
H         1.46522762844124    4.28977344289774    3.19803628557849
H         0.89981348502150    2.53815720980251    4.84163482985478
H         1.40346009031253    0.17559729918730    4.34731106039361
H         2.46563232688316   -0.44195516335566    2.20985121513338
H         1.02167058161043   -0.21688371714535   -1.05736382605766
H         0.52701734832591   -2.60857883963667   -1.34730538912588
H         2.22524573010712   -4.30365406980947   -0.78546203230871
H         4.43248694421764   -3.60311163449944    0.06831326195039
H         4.93486810657516   -1.18746785600324    0.34696411868140

