75
CSD_code = NITKOS | q = 0 | S = 0 | Stoichiometry = C33H38BrIrN2 | MND = 6
C         2.61719885569738   14.17883043807008    2.05678171552197
C         1.79262309041834   15.19492328735711    0.00761216357657
H         1.83848590871667   14.76865549384615   -0.99811952003161
H         2.71607266745968   15.76025287636406    0.17660044731966
C         0.60733909913221   16.14728174138218    0.17331597098810
H         0.65091239353810   16.57697612075261    1.17542906884540
H        -0.33420894989566   15.60176805437453    0.08570649342509
C         0.65033903409245   17.26950251900829   -0.85898650485898
H         1.59138453874239   17.81369252304615   -0.75831248704169
H         0.61604607656216   16.84588256810543   -1.86663902847066
C        -0.51264111164180   18.23466154793250   -0.67153493861864
H        -1.46198759681744   17.71585729207504   -0.78583431725437
H        -0.46780652763949   19.03649218972314   -1.40457232457195
H        -0.47907837846565   18.67247846019411    0.32270788059002
C         2.90369949347368   13.00352279940424    4.16529764374599
H         2.20706159675468   13.05115673629586    5.00532004400571
H         3.60625810353087   13.83983005730711    4.27449668919831
C         3.69017671885425   11.69233856693724    4.15589985746526
H         4.39302267640777   11.71081979083769    3.32083350137819
H         3.02001952472485   10.84505992852084    3.99732131247743
C         4.46009726788191   11.50441155654189    5.46011008364910
H         5.12414108832651   12.35791818607453    5.61080033870142
H         3.75855436237315   11.48010791211476    6.29705980864683
C         5.27837150056119   10.21954180549617    5.44798190552419
H         4.63153950034929    9.35547637719042    5.31215998200760
H         5.81720305906661   10.10099932676767    6.38466741034763
H         6.00189156181633   10.23544574016351    4.63583828340143
C         0.82103996530753   13.16272918291365    1.18967335530699
C         1.07929661966689   12.59421924780774    2.43240607375813
C         0.24182603504572   11.57920974351940    2.99305760565321
C         0.36749791095111   11.05260645437138    4.27887368737918
H         1.12289317521035   11.41395848774075    4.95129155955388
C        -0.48670064692456   10.06706745956940    4.74116520553315
H        -0.35979469885449    9.68374810294437    5.74293842612025
C        -1.48936211064033    9.57672848871750    3.93463707741600
H        -2.14971009568752    8.79982699046492    4.29094478379893
C        -1.67235756126929   10.08843249802248    2.64899771900313
C        -2.72106451420111    9.59437117693940    1.82130584729837
H        -3.35565035435663    8.81502812509569    2.21804990290896
C        -2.91567012003193   10.08492029616315    0.57916603132435
H        -3.70911289297410    9.70871136535355   -0.05043044242204
C        -2.08379477939027   11.11840856396276    0.06078842203960
C        -2.29916653382289   11.61879289548683   -1.22432385906616
H        -3.10490662821767   11.21354390814381   -1.81861924713600
C        -1.49037943856167   12.61324924113409   -1.72795367566413
H        -1.65258534125008   12.99081554324052   -2.72683202700569
C        -0.46601871158945   13.13992953827542   -0.96140406005494
H         0.14383490434609   13.90815767710710   -1.39973073156411
C        -0.21987940413835   12.68432618396273    0.33404650480539
C        -1.03191145453954   11.63821405937239    0.85883994694975
C        -0.81527995348168   11.10880244793316    2.16131772423947
C         5.27425737280826   14.79354979914004    0.76002492662186
H         4.70353988242606   14.17799291829393    0.06443460329898
C         6.01192935778368   15.91627839010227    0.06766717566859
H         6.89431830505174   15.51330835023245   -0.44237827287170
H         5.35554151620674   16.32278456767644   -0.70602750044158
C         6.42651951054680   17.05186614635407    1.02161905160511
H         6.43465538675488   17.99257559549052    0.46735220703917
H         7.44102498509791   16.88695093416771    1.38822361312024
C         5.49042489145480   17.18348029985252    2.20115090283392
H         4.88393868246065   18.08642208229952    2.20098664416181
C         5.69681370824396   16.55010736629666    3.41103885211970
H         5.27416934491846   17.00695899876828    4.30420662120259
C         6.83625500164142   15.60333152560682    3.70466796419878
H         7.76358643955520   16.17579271688559    3.81664442983388
H         6.63867145965927   15.12546421913378    4.66736368714616
C         7.01320541375481   14.51305488367836    2.63126565965768
H         7.41553953872062   13.61573099568810    3.10657827447784
H         7.74127098090185   14.83132899382512    1.88306376842230
C         5.71098837222671   14.16569231059612    1.94016000814626
H         5.41376986011693   13.12676320340291    2.06400013323348
Ir        4.11015574810796   15.50642188377712    2.38452241866199
Br        2.36905046712026   16.85121194603804    3.54815176962494
N         2.19652207772632   13.23276305497437    2.92846024259372
N         1.76989277206482   14.14718724359787    1.00197550948908

