104
CSD_code = NITLIO | q = 0 | S = 0 | Stoichiometry = C46H35F15N2O2PtS3 | MND = 6
Pt        3.35076145676949    2.60103085411391    9.19654907808173
S         1.02721872442157    2.61169861603258   10.09288014241112
S         4.19758796456653    2.25550074085425   11.57579308458236
S         5.58935095898061    2.65391316689326    8.17796130364843
F         0.30369947771816   -0.09762184384028    9.08559647384377
F        -1.00208360514162   -0.71677482149158    6.80496878083079
F        -1.90295863621991    1.26795855285666    5.15844913514405
F        -1.48830201876927    3.87953610212515    5.83221775046953
F        -0.16495324946737    4.50056672379370    8.10730627147702
F         2.50232806035818    4.43353101982920   12.73712660582754
F         0.30722279829683    4.16728347965029   14.27374513332002
F        -0.61911214150679    1.67860778248861   14.94119460977680
F         0.72497542958364   -0.53546379104733   14.05924539109411
F         2.92126331532792   -0.27602742742096   12.53191305348195
F         6.69078205968013    4.43286238573171   10.30081702664136
F         8.08588831088478    3.71326027027039   12.49931313521165
F         8.64221759744497    1.07851728450377   12.96582119824601
F         7.78441848635491   -0.82098078817891   11.20422477619626
F         6.37735758563571   -0.09659921392726    9.00531227792305
O         3.52255314668703   -2.66692958372624    9.85502931019906
O         4.25026196442161    7.63788700728815   10.92297117864346
N         3.17864977031704    0.64256362564723    8.63232499264738
N         3.34771149074626    4.63234514844420    9.12637297588475
C         3.43564110846944   -0.39918322647172    9.39208368096027
H         3.80370447573607   -0.22331366475045   10.39436612647312
C         3.24240968464009   -1.72279564007616    8.96447333350934
C         2.77575914472172   -1.91333688692774    7.66118650911644
H         2.60614844662833   -2.90196111933718    7.26626732338238
C         2.53235446072472   -0.80838638037687    6.86773842416194
H         2.17625152795355   -0.93926452774310    5.85836948699125
C         2.72921932176356    0.47657825583628    7.35762803828190
C         2.46411621790524    1.71330776071391    6.61754123973507
C         1.98110634752257    1.90986983789390    5.32177282654428
H         1.76263699458681    1.07379079445273    4.67545102776911
C         1.78517835817085    3.20674118632717    4.86340397930879
H         1.40696575418660    3.34791530069320    3.86215936038426
C         2.05243754100869    4.32972268860950    5.63633570217056
H         1.87600786668325    5.31385474391624    5.23201125029707
C         2.54264822975972    4.16036883336924    6.93296231124515
C         2.71647930554982    2.85553686911566    7.35450786516317
C         3.77633198682073    5.41411861060929   10.10147999974197
H         4.11206496586946    4.91316934638553   10.99864171633901
C         3.79809957664314    6.80883114844430    9.98643191957681
C         3.31151857402762    7.36064450202692    8.79254457251467
H         3.29678345865624    8.43331195032607    8.68376498593122
C         2.87863626903380    6.52957467258835    7.78439356947806
H         2.51292392871917    6.94035916717767    6.85762935920222
C         2.91561413665539    5.14673604842661    7.95022975920084
C         3.20320998319126   -4.02221824882271    9.57429460546505
H         3.85585657181014   -4.40086028463011    8.77636606999858
H         2.16027855509328   -4.09901486657188    9.24616331122250
C         3.42047570466963   -4.81966517881926   10.85695718402465
H         4.47225790656082   -4.73798613488489   11.13463578313722
H         3.19947789992822   -5.86788981400719   10.64778198195057
C         2.56135600878664   -4.32123678009701   12.02071027795287
H         2.85670306094219   -4.86890581548192   12.91789708932169
H         2.77408857879838   -3.26535629174939   12.19144267698358
C         1.06151006262824   -4.50860565984758   11.80195622373807
H         0.85935219652648   -5.54627203334936   11.52184987427674
H         0.71912439380301   -3.86802512750863   10.98665221908652
C         0.26392936590469   -4.16062831024277   13.05717122633328
H         0.57594289397956   -4.81298886577905   13.87577615206294
H         0.48435368203032   -3.13309123500319   13.35022409655519
C        -1.23574545087849   -4.31134696783568   12.83407267991443
H        -1.57101300162454   -3.65022622706855   12.03772014887851
H        -1.78266067363820   -4.05963760660155   13.73922537319153
H        -1.48226118599905   -5.33450571166066   12.55643726276775
C         4.80957756504711    7.09471172889362   12.11770882591275
H         5.63269143638828    6.41728728658755   11.86161482383409
H         4.04158660194414    6.53678388236769   12.66508408052704
C         5.32898445379716    8.25076363510263   12.96246339973918
H         4.49785791225388    8.91391826745891   13.20738236855799
H         6.04985537468647    8.82029272764832   12.37344179871194
C         5.98935575115348    7.73999378599910   14.24054145121254
H         5.25870347729284    7.17562119302070   14.82401386585077
H         6.79956148623505    7.06054717620508   13.97304810140869
C         6.53450155973764    8.88732792292409   15.08786998216272
H         5.72034883361044    9.58483915121863   15.29917348236879
H         7.29337563390751    9.42827394079394   14.51812209746477
C         7.13817599176201    8.42072372736924   16.41300083586282
H         7.36078003429067    9.30075449475157   17.02095369126672
H         6.40054779946805    7.82421688058198   16.95420694630162
C         8.41659968009895    7.60923707144515   16.23770716695120
H         8.22101163321347    6.67525322635575   15.71815869412752
H         8.84701820648416    7.37164579849897   17.20776321221209
H         9.15047052215379    8.17453613279786   15.66725816617561
C         0.12262395919055    2.21985104751567    8.65009267941393
C        -0.14029053926320    0.89248271639723    8.30262280602458
C        -0.81804903020074    0.56586860887935    7.13670150310572
C        -1.27701635454602    1.57472710300928    6.29629332541547
C        -1.06085217901608    2.90627651355723    6.64084435920880
C        -0.37958866010232    3.21693449310548    7.80848160451227
C         2.76367348834008    2.08792252719513   12.55245097820333
C         2.07136661097914    3.19926098332597   13.04240219100619
C         0.94201806583283    3.07391164708305   13.83543861107274
C         0.47261351955539    1.81137306179507   14.18009042846174
C         1.15671001856277    0.68783539186105   13.72929088371258
C         2.28619928693242    0.83225212539481   12.93933208028477
C         6.49275779756767    2.18483699754865    9.60164067746014
C         6.95345297909035    3.13885235482123   10.51111010638042
C         7.66908956035099    2.77588872785106   11.64343133166892
C         7.95069632324456    1.43503131714145   11.88373141350907
C         7.51184415811756    0.46713306934557   10.98358519203979
C         6.79643385954355    0.84613888189911    9.85670454786647

