71
CSD_code = NITNIO | q = 0 | S = 0 | Stoichiometry = C35H31ClNOPPd | MND = 4
Pd        2.49631147753619    7.17182126253817    8.43575940131183
Cl        1.82067236568758    6.90958193782404   10.66227005556536
P         3.34850309504357    9.13531373055264    9.02388336961190
O         2.10338403235368    3.27415109279584    7.04976822288796
N         1.89731436034480    5.24962787626533    8.03523518328802
C         2.55768988695857    4.52104797459326    7.23005400814342
C         3.76803502831313    4.97845040594573    6.49304277982281
H         4.08715545891876    4.19696104301285    5.80315655621017
H         4.56676513756174    5.15634617233246    7.22725153125119
C         3.45587312479368    6.27497901813423    5.76430038101745
C         2.94733453627640    7.36118250102155    6.48074948205295
C         2.64768243778352    8.52049363881094    5.76953676519504
H         2.23764864526021    9.38337508529735    6.29036577558658
C         2.86672696485963    8.61149599156863    4.40451468194406
H         2.63308667669455    9.52797993863370    3.88051037182877
C         3.38493166432792    7.53056268620428    3.71512121757885
H         3.56145001124847    7.59302920700230    2.65124320096616
C         3.66981612217604    6.36059544225634    4.39677434383225
H         4.06473124669136    5.50820277711247    3.86006115332511
C         0.92336456580638    3.14049510074091    7.84877533715473
H         1.05311356007462    2.28552968853371    8.51524746961173
H         0.07970031736566    2.95911581493983    7.17705413396433
C         0.80368419824586    4.48575940076314    8.60280757494838
H         0.99211649487414    4.36974486029300    9.67845677850156
C        -0.53875261082530    5.22272825552013    8.44369802571511
H        -1.32426900717880    4.60548121690347    8.88248917168193
H        -0.45045576676762    6.14967009453062    9.02296228585874
C        -0.83223134424371    5.53477999295949    7.00633952519593
C        -0.26668312018746    6.66009930405055    6.41903608645057
H         0.32642347735014    7.34008746644982    7.03380700619563
C        -0.44494900391276    6.92276262041110    5.07346057561713
H         0.01776900087661    7.79232050582653    4.63144374772321
C        -1.20966969409920    6.06684398609567    4.29860340876581
H        -1.34891102943100    6.26646497171475    3.24651889031711
C        -1.80343621624417    4.95922578574455    4.87901305915784
H        -2.41308661076046    4.29652363585181    4.28193451651600
C        -1.61481464836399    4.69345961505065    6.22446955925950
H        -2.09120306213331    3.83149333804186    6.67239809530974
C         2.03476003268640   10.35783407601949    9.29283857495160
C         0.74117063665614    9.97972593519092    8.94852422286405
H         0.57716198974040    8.97273487570899    8.55589767846951
C        -0.31422375834432   10.85314854048964    9.13862279943905
H        -1.31858364219241   10.55578175787420    8.87555942913408
C        -0.07915856709191   12.10814156028956    9.67672878824320
H        -0.90083075783448   12.79260690721356    9.82803162213401
C         1.20572582534958   12.48301084244908   10.03865178412723
H         1.38124397719002   13.45609930914152   10.47402695856408
C         2.26336324128631   11.61122986090667    9.85405364005005
H         3.26263593411330   11.88940764075177   10.16147070713070
C         4.28747088976230    9.23772722855479   10.58391646854288
C         3.58334710230419    9.33692589331867   11.78219646332757
H         2.50364848764758    9.37200905706937   11.76743328921329
C         4.26321432941934    9.36459300778840   12.98499280142944
H         3.71035741355948    9.43532034666937   13.91004375019977
C         5.64680490818412    9.29372823470751   13.00606953998893
H         6.17617515521905    9.31266700783262   13.94752917392833
C         6.35031390952767    9.19365983905763   11.81777795023744
H         7.42933764587555    9.13605049772816   11.82972345257775
C         5.67633133164217    9.16186860039793   10.60961616283467
H         6.23371745232440    9.08282889333942    9.68646331565122
C         4.51601524783406    9.87224264239691    7.83281391471700
C         4.50644329001381   11.19266401037427    7.41017979601311
H         3.77124728846718   11.88304011462197    7.79758936990215
C         5.42983782396820   11.62120905060021    6.47061180325307
H         5.41628320663421   12.64904949597662    6.13804498180104
C         6.36217958869806   10.73950361739106    5.95247706847040
H         7.07606721143256   11.07949949545532    5.21688962858449
C         6.37226257915998    9.41648963213225    6.36758397414112
H         7.09163549907432    8.72448700979885    5.95494478534272
C         5.44865476488063    8.98544423455757    7.29829715259764
H         5.41806818952907    7.94428734780832    7.61268522285960

