95
CSD_code = NITQAJ | q = 0 | S = 0 | Stoichiometry = C42H34F12FeN6 | MND = 6
C        -1.51046852497073    2.67874332998122    4.21490400427097
C        -0.70891097080731    3.66336393176735    3.56449694734425
C         0.43926185810294    3.02358684211686    3.14697123303299
C         0.28039522163417    1.63896361048664    3.50313687324655
C         1.28581744320116    0.68381710373925    3.24980271043066
H         2.22828977667417    1.13315246661363    2.96327854760628
C        -1.10096858588595    5.03012401229577    3.13668376739452
C         1.58348052970394    3.61985682826344    2.40207616439628
H         2.52351248123260    3.27734699308924    2.84241637880088
H         1.55149870634601    4.70590485113052    2.49380300457203
C         1.54851288398437    3.23894282756411    0.91854351928635
H         1.57470765656577    2.15847450295633    0.79647301234061
H         2.40337038877443    3.67109103978934    0.40460953132466
H         0.64066852657555    3.61841926450488    0.45769614971826
C        -0.08937490533948    0.00060927020344    6.61847449537335
H         0.53085019214698    0.00010606211768    5.73723715228260
C         0.47257085879013    0.00005873477014    7.88219137740288
H         1.54523186861653    0.00015019142530    7.99295124615876
C        -0.36074703034067   -0.00026660831747    8.98980480796882
H         0.04329541117815    0.00011768639509    9.99030298570331
C        -1.72945685782638   -0.00012827965508    8.77225462821505
H        -2.42443500637046    0.00001437051074    9.59683257361163
C        -2.20214332494259    0.00045038673681    7.47238711968333
H        -3.26167970717564   -0.00001321840486    7.27321815713243
F        -2.40579176935285    5.28165679790289    3.30451664911171
F        -0.88707906629214    5.19734874528332    1.80670613645507
F        -0.41681288941882    6.02686102046926    3.72202071942815
Fe       -2.11665229394050   -0.00030929293374    4.56869189101906
N        -0.92005668856036    1.45898157610920    4.09125438752564
N        -1.40444182810624    0.00088512606034    6.40550606728379
C        -2.72283392104711    2.67874436144341    4.92250576475357
C        -2.72286779378297   -2.67894308962366    4.92248379883916
C        -1.51043650060436   -2.67894202236985    4.21492633869942
C        -3.52439044235446    3.66336443996339    5.57290708486814
C        -3.52448087702360   -3.66351672467112    5.57284193950031
C        -0.70882086758050   -3.66351658547409    3.56456453713042
C        -4.67255802616195    3.02358158598609    5.99044741178287
C        -4.67268856277152   -3.02373790308144    5.99033319256974
C         0.43939200138561   -3.02374345401602    3.14708841640530
C        -4.51370543548368    1.63896523101871    5.63425895414045
C        -4.51388042513791   -1.63915424787437    5.63411930549088
C         0.28057238357829   -1.63915374478751    3.50328460248944
C        -5.51915760614669    0.68381564474576    5.88753437388639
C        -5.51924418661181   -0.68392886010606    5.88746508049575
C         1.28590426281918   -0.68393102077185    3.24987435714610
H         2.22838125399678   -1.13318251280376    2.96327929280723
H        -6.46168365874387   -1.13317704632312    6.17418242368117
H        -6.46158963259354    1.13314766800869    6.17419068026748
C        -1.10090785858455   -5.03023188567125    3.13670373153386
C        -3.13239963277206   -5.03023887634601    6.00069107033426
C        -3.13233963383931    5.03013162630119    6.00070906859442
C         1.58359566851632   -3.61993865229938    2.40214761658131
C        -5.81690684779830   -3.61994164620600    6.73525527595570
C        -5.81678905475536    3.61985881905432    6.73532938657826
H         2.52362427046667   -3.27741454745070    2.84246832738852
H        -6.75692940371914   -3.27740801544754    6.29493159678268
H        -6.75681618204243    3.27734005713472    6.29498918524592
H         1.55161205424718   -4.70598023921183    2.49386018698101
H        -5.78491843243895   -4.70598238343886    6.64353597723053
H        -5.78480433762267    4.70590611559819    6.64359833450915
C         1.54863056783480   -3.23897515420355    0.91864299220851
C        -5.78194513768541   -3.23897588484757    8.21875582087500
C        -5.78182988714411    3.23894455903580    8.21885728730495
H         1.57481334412808   -2.15849685391160    0.79662412760165
H        -5.80812839594334   -2.15849657769665    8.34077570414431
H        -5.80802245513080    2.15847465392696    8.34092493978877
H         2.40348537493421   -3.67111371663038    0.40469646421300
H        -6.63680091858669   -3.67111988201801    8.73269272332821
H        -6.63668780226349    3.67109756603583    8.73278517846219
H         0.64077427517549   -3.61846469668259    0.45783129552602
H        -4.87409017878718   -3.61847424869625    8.67955986954514
H        -4.87398453895542    3.61843001322728    8.67969216855215
C        -4.14393641452081    0.00061877199261    2.51891909182478
H        -4.76416188732092    0.00010237636786    3.40015590143240
C        -4.70588248766713    0.00005753512071    1.25520452100266
H        -5.77854273893394    0.00015016419123    1.14444781155011
C        -3.87256160087944   -0.00027562948854    0.14759132898638
H        -4.27660276821972    0.00011992873615   -0.85290653478981
C        -2.50385398143593   -0.00013196119831    0.36514163956905
H        -1.80887538803681    0.00001806313758   -0.45943631768421
C        -2.03116794705715    0.00045722944746    1.66500801796647
H        -0.97163254033174   -0.00001327738132    1.86418148259983
F        -2.40573970238078   -5.28173598330279    3.30449763491618
F        -1.82757062523093   -5.28174466982933    5.83289173048293
F        -1.82751922657551    5.28166643207316    5.83287206721692
F        -0.88697732293907   -5.19739740065305    1.80672918455413
F        -3.34632695812323   -5.19740703333223    7.33066523189057
F        -3.34622706516692    5.19735852441400    7.33068615223075
F        -0.41677662688569   -6.02698139861114    3.72204116570505
F        -3.81653819210130   -6.02698136300775    5.41535140058804
F        -3.81650240211683    6.02686183349506    5.41536973530710
N        -0.91983662632430   -1.45927709576562    4.09144477992748
N        -3.31345243462386   -1.45927347034084    5.04599625830270
N        -3.31323599047480    1.45897910207775    5.04617546333563
N        -2.82887024981979    0.00089728006969    2.73188413074628

