60
CSD_code = NITWET | q = 0 | S = 0 | Stoichiometry = C21H20CdCl2N6O8S2 | MND = 6
Cd       -0.26179431633290    6.48589489333685    9.84237017332256
N        -0.93778428284556    4.80278312293967    8.51467773331058
C        -1.94923734031051    4.16114641716395    9.02564706019476
S        -2.68983875290770    3.05555366588955    7.92470200119881
C        -1.54042857242004    3.51743273580458    6.73712843727504
C        -0.68682843399895    4.46275869376440    7.22797136731427
C         0.43108998573298    5.11469583739849    6.50087164017230
N        -1.78982986092136    5.33158219215464   11.04330919516678
C        -2.00794814239611    5.57539989988297   12.33035993541333
C        -2.90753833738910    4.75478263326759   13.05371135433414
N        -3.16872614941892    4.87182606857563   14.38864045337621
C        -3.60820863143637    3.77128426500743   12.33500936855545
C        -3.36056881053172    3.55601663563934   11.00336001695761
C        -2.38738553722262    4.35063038411565   10.38806294112304
C        -2.20199052668903    5.33274233750071   15.36542479738184
C        -2.81194436405607    5.12392130071746   16.75159393190482
C        -0.87478276526718    4.56723852773079   15.23845448135077
N        -0.51653995833744    7.33351102555997   11.90742433724400
C        -1.27082436733231    6.75169211734332   12.83294357510936
C        -1.33343726875649    7.30874203545142   14.13341438142683
N        -2.00822136282213    6.75783019783218   15.18492157625259
C        -0.67908115688074    8.53379948586495   14.34513655724929
C         0.05053754746297    9.12866817192190   13.34765605512569
C         0.13998941857780    8.46151679968869   12.12134549538357
N         1.03198230123522    8.30342256981541    9.88281486519599
C         0.94363965395687    8.93283493078086   11.01879285626439
S         1.91625256234784   10.35894473527768   11.08937499870225
C         2.44673460444072   10.04057504564901    9.48908933702741
C         1.87229620163670    8.90085826202675    9.00515344789160
C         2.08726364294467    8.29483388129094    7.66723104178552
Cl        1.97001706240984    5.11134506148607   10.85035685213925
O         1.84529789983437    5.47118984378689    9.46425381928251
O         2.13063499439987    6.29544598999455   11.61933974127463
O         3.07974056621468    4.25666520998429   11.01193665811646
O         0.77356494433466    4.45004203765975   11.25811648629331
Cl       -2.26919611101961    7.97772314747488    8.57224435140235
O        -1.91148922722450    8.55529418914523    9.82524501164726
O        -2.99785802017999    6.77880134046540    8.79881514233283
O        -1.06074452988365    7.65262995293345    7.86382230344515
O        -3.02656645843805    8.88697108957767    7.80700992445222
H        -1.93218440819421    7.28287050543311   16.04381897944522
H        -4.33737382988381    3.16820738247200   12.85836240291901
H        -3.87894683457047    2.78899803790611   10.44975840688740
H         1.12867177657327    8.25050354606578    7.15119634888658
H         0.17054406909201    6.16063000682634    6.34136490294983
H        -3.00366758859331    4.06847890423377   16.92613745334211
H         1.32112019324290    5.08108807908319    7.12819021154710
H         2.80279169072324    8.87227162612730    7.08846531349116
H         0.61378842230889    4.62570793582046    5.54797576363241
H        -0.75370209858414    8.99961955232590   15.31815712318426
H        -1.55905485441396    3.07786056372308    5.76053349537920
H        -3.74771201547776    5.67212063198284   16.83231145367231
H         0.55706231817608   10.06807692534793   13.50405444529953
H         3.14035777800437   10.69680372871893    9.00369023207403
H        -0.44353921262089    4.68628585516005   14.24746948810182
H        -0.16261931147955    4.93636392941751   15.97220005667593
H        -1.04137136393330    3.50754407161611   15.41492309642748
H        -2.12923139206067    5.47262466910954   17.52197685353925
H        -3.83098198389138    4.19590739492703   14.74024874585026
H         2.44340054504565    7.27380992182196    7.80293152331542

