80
CSD_code = NITWIY | q = 1 | S = 0 | Stoichiometry = C25H48CuN4OSi(1+) | MND = 3
Cu        1.72916112042147    9.86953574867583    2.53855356900503
C         5.97027753233329    8.54526864611391    5.34475190104887
C         6.35067731963538    9.86932014520996    5.54021595009400
H         5.76789915910331   10.66534853080552    5.09757700904364
C         7.47314769019335   10.16490764267025    6.29412616601196
H         7.76122919658639   11.19442837855398    6.44279345596439
C         8.22352968150243    9.14449014984399    6.85373164298264
H         9.09801084911998    9.37772947988096    7.44075178041890
C         7.84975926593943    7.82480447210600    6.65894038645413
H         8.43271812548923    7.02732162013633    7.09302696024250
C         6.72780689034350    7.52255119080671    5.90832223634252
H         6.42942154424850    6.49573326840479    5.76035593093964
C         4.77707675283684    8.23488226085344    4.54686138919972
C         5.77294122694614    8.03816158292858    2.24798145760862
C         5.10838892577634    7.69813751483174    0.91321683431703
H         4.63397354269734    6.72436394364251    0.98028521426952
H         5.84903157680335    7.67340857899547    0.11917732603752
H         4.34996285947189    8.43662468131267    0.66552499368156
C         6.43456944310613    9.41875211260120    2.15683194237538
H         5.67761860240347   10.19007121958120    2.02620681670528
H         7.11153990158080    9.44841674614569    1.30755169748296
H         7.00432781907372    9.63833257889180    3.05565372230983
C         6.82401099831723    6.96963121462469    2.56916511255798
H         7.39431559546066    7.23460699996889    3.45498263429561
H         7.51372158264808    6.86984409762289    1.73554677223853
H         6.33862345971522    6.01137672133747    2.73632670898515
C         2.96352734978734    8.38952532886181    6.28077364979751
C         2.88857654668626    9.90447002866904    6.51245091084032
H         3.88577170550734   10.33116224499521    6.58131375935820
H         2.36185294062948   10.11373138868665    7.43946612933391
H         2.35914429866620   10.37975402479592    5.68842919919090
C         3.76481642344800    7.72308028557814    7.40344039256815
H         3.93462535600251    6.67487376408353    7.17117316078537
H         3.20652664059024    7.78425007092728    8.33375098217699
H         4.72427319249311    8.20996139116684    7.55093088968705
C         1.55076373453711    7.80289337373437    6.26232420438868
H         0.95977907442628    8.26939096199975    5.47884083027221
H         1.06122780297252    7.96590387471808    7.21809609197793
H         1.60116115857282    6.73518187892808    6.07183747506326
C         2.90843616146909   12.53201069659640    2.70349978284456
H         3.19429685473131   13.52422542845986    2.33508886433312
H         3.81140938460822   11.98757207271518    2.97442644074747
H         2.30421094136524   12.65466426427689    3.59934318725372
C         3.00702992192658   11.63554511892659    0.49903382450822
H         3.24715783846758   12.60883864085749    0.05636505377507
H         2.49552438727402   11.02817135783078   -0.24561820517851
H         3.93767618250760   11.13754313583013    0.76436727818106
C         0.91171648845981   12.45427942729280    1.35178256655361
H         0.59576834349096   12.11770280994100    0.36273593599054
H         1.04452758690678   13.54262769965886    1.30774611949183
C        -0.16921815030609   12.11053973745110    2.37694191525425
H         0.08358277029978   12.56141981085240    3.33877088606700
H        -1.13071225519759   12.52842451232382    2.05221041724844
C        -1.01631117918447   10.04016306034504    1.47252934883432
H        -1.05856942431950    8.96261493240036    1.62069245157740
H        -0.53270691874240   10.23144888457922    0.51787621705881
H        -2.04115845876832   10.42643237398152    1.43134694378814
C        -0.92536245820695   10.35471811640276    3.83009274167843
H        -1.93348270091345   10.78268686445194    3.86464084082977
H        -0.34723651716734   10.75467408898377    4.66133827341460
H        -1.00557517564648    9.27628710833490    3.95428518635424
C         1.47933384655812    6.08025527803546    0.97139165691649
H         1.25854646811390    7.13884303764544    0.85671047531229
H         0.70698684475785    5.49792542450418    0.47812432038551
H         2.43123455306169    5.87211542782091    0.49212886141050
C         0.21173218412963    6.03799703432380    3.12986615826218
H         0.26070929058983    5.79952744866289    4.18799602373361
H        -0.58719181352143    5.45861622223679    2.67705462134235
H        -0.00716925433464    7.09767405209103    3.02162726617255
C         1.89276024840165    4.23991700682131    2.63111545105243
H         2.84762869911253    4.02445461534321    2.15982873050166
H         1.12862989145948    3.61338916826032    2.18164274567624
H         1.96852129212055    4.00116650465071    3.68825368877269
C         1.54439966471179    5.71864870820439    2.45444531419487
N         3.53351610163192    8.11997089664594    4.97798112587300
N         4.72070610139734    8.03253305152053    3.24277446392727
N         2.17201962521072   11.77922072847025    1.68951166700652
N        -0.26073119317593   10.65585966403381    2.56336078091329
O         2.58611898786348    6.44872499829814    3.08298454047537
Si        2.86565795273325    8.03824244622757    3.24361875143402

