65
CSD_code = NITYEU | q = 0 | S = 0 | Stoichiometry = C18H42Br2OsP2 | MND = 4
Os       -0.91624976361253   14.89100593769305    7.26145593922995
Br       -2.42353172619478   15.96022297345408    8.89690854831593
Br       -1.86727539605551   12.95192364182271    6.06637532230582
P         0.12503739829235   13.50575595686113    8.82182849436114
C         0.72550860213816   14.39497319021515   10.36701864482558
C         1.05422597407049   15.85886965472660   10.06038472493088
C         1.90496230817000   13.77865872995953   11.11547816022830
C        -0.86651463491330   12.05370312827804    9.44584627914636
C        -2.24217408442755   12.53762763196139    9.90139294548676
C        -0.21668456814595   11.18975242031466   10.52116976747405
C         1.67994293185215   12.71556874664378    8.13009896604083
C         2.42498450896413   13.79433696474051    7.34221224474908
C         1.38432034869211   11.52324891104525    7.22393075595571
P        -1.48748399919171   16.44152621392648    5.61651331028296
C        -0.62916017746044   18.09024657494138    5.87343260068377
C        -1.29837052831947   18.94458156560644    6.94694301427120
C         0.81649503895531   17.79144756469052    6.27380925493407
C        -3.29135753546855   16.90050776236941    5.48940956570574
C        -4.13581404784154   15.62838514653832    5.43708487526883
C        -3.67978765644451   17.85094807217442    4.36210439508892
C        -0.98067015093126   15.94216937386254    3.87484420974906
C        -0.72742944612698   17.06407702573955    2.87059322307672
C         0.24883580166191   15.02980851436266    3.90607394957532
H        -0.15839340514205   14.38484554555053   11.01944485936250
H         1.98996221904465   15.94754667019407    9.50912410115519
H         0.26154763916862   16.33826614362663    9.48517327244461
H         1.16309934308251   16.41728538761585   10.98878845701584
H         1.76587495203134   12.72301415339145   11.32252552382493
H         2.83031979228944   13.90518690763842   10.55582688271439
H         2.02538331740422   14.29393278263574   12.06807435908500
H        -1.01837853130247   11.44383760597198    8.54575880231790
H        -2.16958108137003   13.23433046042476   10.73455620402526
H        -2.76379742911997   13.03306996933964    9.08394138458102
H        -2.84637869496065   11.68968858766241   10.21736998467969
H        -0.80902889592926   10.28537469936590   10.65504777801811
H         0.79294266422362   10.88870555158257   10.24815617284827
H        -0.19195106224429   11.71148212507092   11.47531978916421
H         2.30688295045054   12.37733920558233    8.96083788620382
H         3.29739497364057   13.37598483018726    6.84153948864005
H         1.77169867900099   14.21830917710937    6.57050845645780
H         2.76346543966266   14.60188925531711    7.98937833902093
H         0.97001787358440   10.68878249699190    7.78312560082624
H         0.68301103900476   11.78678262882387    6.43464736322887
H         2.30751724586258   11.18512386011835    6.75386733325827
H        -0.63506321085144   18.64513564257281    4.93024044606903
H        -1.40822864240157   18.39722019062776    7.88105528202799
H        -0.68837144613945   19.82592855008755    7.14371087678615
H        -2.28181521196476   19.28348915429697    6.63281216999442
H         0.83813455482007   17.14835972614090    7.16140558098639
H         1.35938545971106   17.29226104287579    5.47277777005336
H         1.34850892769759   18.70975890381971    6.51955504194090
H        -3.49817334423288   17.38827683439012    6.45090135152557
H        -5.19249028626970   15.88676616833161    5.41368634096722
H        -3.91101246017435   15.03050936566505    4.55571109454476
H        -3.96139958340591   15.01643801055557    6.32075377968201
H        -3.04880862792852   18.73732156731324    4.33977235877007
H        -3.63153483317672   17.34961521808665    3.39809947046002
H        -4.70783933670118   18.17797360773625    4.51256249420213
H        -1.83139665065290   15.33796828066272    3.53096761497219
H         0.19678171232201   17.59161262353800    3.10090541155572
H        -0.61749719975446   16.62947168664545    1.87739580573055
H        -1.53785857647733   17.78405444242286    2.83171929204251
H         0.13798214748219   14.22875810170393    4.63758039817868
H         0.38876677302997   14.56193122065750    2.93280912312329
H         1.15351160906537   15.59212591573878    4.13605706583258

