65
CSD_code = NIVCUR | q = 0 | S = 0 | Stoichiometry = C17H33B10N2RhS2 | MND = 8
Rh        7.26116532769581   13.21091968899010    6.21531587168979
S         6.33681887819029   11.33296068177950    7.31552646439266
S         8.37853331981171   13.74253204036679    8.23009234498326
N        10.15313045055699   12.44780315076718    5.63514713358613
N         8.81839785250493   10.87326204408672    5.03597989878769
B         8.77399223637388   10.85706359885550    9.03792204691459
H         9.33361568129742   10.77457897871416    8.00466391988961
B         7.56476596544819    9.72526818405610    9.59934157331301
H         7.34624991564135    8.77255100372554    8.94407915925457
B         6.19302028735217   10.63077730926729   10.27007688644281
H         5.10379695639619   10.24923712634142   10.04586317251919
B         6.52077267763348   12.34709221359043   10.14487290550046
H         5.74857043012314   13.14641937241548    9.76367822712442
B         7.96513588384795   12.72121560546042   11.06308673775764
H         8.14115342347012   13.83226728200363   11.40491607910332
B         9.33429385046429   11.81262992159936   10.39113299823330
H        10.37788863627784   12.34883668751199   10.30057927976796
B         9.00784665001589   10.07058024712245   10.58859086669600
H         9.87283088789262    9.28423159913245   10.72848555216421
B         7.40458305176975    9.91638668847983   11.35658479869488
H         7.13789901889154    9.00263537256093   12.04936242930750
B         6.76780631785046   11.55348163993159   11.68529842325182
H         6.06845174992539   11.79971611297156   12.59918735694228
B         8.51699453004880   11.22859245271982   11.85433289546379
H         9.04868156173623   11.25665135079934   12.90434470380974
C         7.09274791021644   11.24170188230614    8.94533077567076
C         8.07184594717478   12.39673842567334    9.38359351278825
C         8.84637656888713   12.10287779030461    5.59744689319424
C        10.92695093319859   11.43713599608019    5.13620956391614
H        11.99402351932994   11.50529056045575    5.08896953412575
C        10.08767174399574   10.44705579016863    4.75944884289859
H        10.28611162724441    9.49050505857644    4.32224215441464
C        10.71669251876312   13.68593773593058    6.10098304886414
H         9.93877836866784   14.44658464181729    6.13586533673046
H        11.51231075458931   13.99863714659637    5.42377537761189
H        11.12315349547069   13.56624844229462    7.10644116103843
C         7.65936984076257   10.07966976992138    4.72870236423471
H         7.79077940757482    9.61004025518036    3.75321026137007
H         6.77731976790595   10.71752044759355    4.71766701822800
H         7.51349554837438    9.30752666320973    5.48566520868747
C         5.67794372186055   13.56625597728091    4.66186074147737
C         5.19864732870014   14.11252923283531    5.90796589065839
C         6.07619970338019   15.14750532312405    6.30020495354403
C         7.11316417883255   15.25801164378943    5.30354855108736
C         6.83901876424324   14.30285663713174    4.27868183334679
C         4.88910281811950   12.62838172833272    3.80047133700493
H         4.08120333003380   13.17859060404200    3.31260516772135
H         4.43982332573727   11.83503576655387    4.39545991760645
H         5.50725655137252   12.18124367898056    3.02467382340551
C         3.89933534129088   13.72567022534016    6.54099092037375
H         3.85161026193500   12.64888099606528    6.70409158987478
H         3.07468024895524   14.00793554457580    5.88425964944071
H         3.76546703039700   14.21958267515244    7.49989166055522
C         5.91397603350586   16.10105997507758    7.44169723454249
H         5.70155089835929   17.09965920747159    7.05616678259701
H         6.82527523725043   16.15285016153199    8.03776085196636
H         5.09907670326808   15.79928076251085    8.09455496220602
C         8.08520216493917   16.39532844212832    5.22914579674180
H         8.49676653102116   16.62275518054736    6.21104542246329
H         7.57003229483580   17.28826085158573    4.86758904516666
H         8.90302419194142   16.17919266025181    4.54475346740537
C         7.53704896681489   14.21251920095738    2.95563976053924
H         7.48749099671279   13.20486399115849    2.54776426142225
H         8.58367333594682   14.49886355507338    3.03783253503801
H         7.05560654717473   14.88892501917398    2.24653106444782

