64
CSD_code = NIVCAX | q = 1 | S = 0 | Stoichiometry = C32H28N2PPt(1+) | MND = 4
Pt        8.67953025073137    8.67574860628035   13.99262441488908
P         7.94881075239830    6.60456257999101   14.80316882143381
N         8.58473651369420    7.92768721223173   12.16259814336273
N         8.89493513707284    9.46766291498417   15.78204147756502
C         8.82853470507062    5.32322269427658   13.86138048693339
C         9.15451955025959    4.11010781578318   14.45568891892853
H         8.92655926736013    3.95543784275166   15.50124475657928
C         9.77396009733762    3.10495533672610   13.73306054483973
H        10.02598809396888    2.17290258560714   14.21471602229335
C        10.05752186374569    3.29914502469962   12.39072665443624
H        10.53201193371960    2.51859821732658   11.81713517299192
C         9.72544213651720    4.49460137782060   11.78438211104717
H         9.94804903388734    4.63700723073527   10.73697540096610
C         9.12290809414937    5.53613694574962   12.50032851446386
C         8.84276684821415    6.74737432864943   11.74476475349535
H         8.89414471840258    6.59601418660233   10.66368859906885
C         8.33041966772865    8.98108512937713   11.19196252232623
H         8.59155308231476    8.65239104874963   10.17736672803221
C         6.83853782169502    9.33101205890524   11.25340304545310
H         6.59623121852297    9.68402663196807   12.25877207024239
H         6.22562255337028    8.46413561187408   11.01396307510434
H         6.62250404332376   10.12788961558493   10.54757882476897
C         9.13921695082608   10.18461619701058   11.62206847886999
C         9.59571730586867   11.13450756596981   10.72478896834575
H         9.41815783350414   11.01462638055541    9.66595322264641
C        10.27900461830675   12.24120869937193   11.19991226864730
H        10.63752731897918   12.98926188627706   10.50995642646402
C        10.49834608008285   12.38637955238761   12.55800530267369
H        11.02825887092638   13.25127849281226   12.92806249895668
C        10.04558647722676   11.42655235182445   13.45206049345505
H        10.23625030361940   11.57249774523597   14.50835304003635
C         9.35507282286835   10.30781228260176   12.99962073099134
C        10.11001697133987    9.45126946609525   16.33723096589649
H        10.93115722543044    9.14735310436807   15.69565226069631
C        10.32754449253673    9.80763833827639   17.65489610503524
H        11.32497422774222    9.77693531176563   18.06260279240115
C         9.24945110662323   10.20559472784502   18.43123214075348
H         9.38617629769008   10.49020215924518   19.46230577294478
C         7.99168846405919   10.23614411472781   17.84696610132115
H         7.12590361065181   10.54802705279839   18.40817268072891
C         7.85638728180643    9.85969066876346   16.52408782353746
H         6.88652490249501    9.87260992493006   16.03781778457980
C         8.17126882460164    6.16208350521975   16.54570630161381
C         9.47359021286883    6.18473745480841   17.04600211966519
H        10.30069395957019    6.34755258976871   16.36521536463477
C         9.70220922017866    5.98275804878440   18.39251371489242
H        10.71137207423063    5.98776260975343   18.77563188501598
C         8.63262913705220    5.77532612504596   19.25128381681946
H         8.81074098523169    5.61845998777260   20.30378395521127
C         7.33725753405191    5.77054964447314   18.76095441999976
H         6.50644491041844    5.61090289846576   19.43114866906419
C         7.10070820433960    5.97076679901644   17.41178172139598
H         6.08959940951137    5.97125586633874   17.02947338958178
C         6.21734293315349    6.23088208329136   14.40985702162679
C         5.39619234341752    7.30706427662221   14.08899315256234
H         5.81752238823713    8.30915344349931   14.09265524464703
C         4.06770812768764    7.09583234652980   13.76944276881577
H         3.43057249881306    7.93039865148053   13.51896994856537
C         3.55882715489613    5.80679794630588   13.77120084258795
H         2.52268238158873    5.63752154850610   13.52207982044917
C         4.37577235870620    4.73187010520656   14.08930514057999
H         3.97360994174604    3.73024671163174   14.08792035727235
C         5.70598672509279    4.93705345377497   14.40667041107361
H         6.34651812855648    4.10101288416037   14.65099301572118

