107
CSD_code = NIVFIJ | q = 0 | S = 0 | Stoichiometry = C53H44O7P2Pd | MND = 4
Pd        7.35667553402883    7.27942840497926    3.57173920287537
P         9.10570013656171    5.74860775499010    3.40437573233946
O         9.89862658138347    5.27264411815769    4.75256276640368
C         9.76774277056091    5.91097018508498    5.95813176548420
C         9.40754770348282    7.24966886236429    6.06315341902846
H         9.21651873522508    7.84404392287374    5.16816944893821
C         9.34018959331866    7.83403134281616    7.31931678242858
H         9.07466598878412    8.87761751324439    7.40542037354675
C         9.62242525979197    7.09989380230451    8.45771452156195
H         9.56743658929179    7.56601728135613    9.43008800085494
C         9.98471592924955    5.76707208803248    8.34396770700917
H        10.20968336218339    5.18691614663507    9.22579588678527
C        10.05581244812342    5.17061409365343    7.09996906045705
H        10.33111251991243    4.13329189938413    6.99214243501067
O        10.12637284941323    6.80635484345288    2.73585716707169
C        11.47345196281082    6.53952121403305    2.54351587983086
C        11.90205236046403    6.02276681604551    1.33141333587806
H        11.16828328504330    5.79272600757928    0.57519466475736
C        13.25349172491467    5.81874664829187    1.11682435918010
H        13.59067548569602    5.41762518852997    0.17249728488387
C        14.17092201991557    6.12497557617648    2.10801260508684
H        15.22474876924715    5.96271140092964    1.93788486078531
C        13.73480252888003    6.63863900074305    3.31743343708725
H        14.44636115259868    6.87834135658989    4.09332840218724
C        12.38540545642303    6.84717828692484    3.54156750891149
H        12.03282172628695    7.25558866576263    4.47684973027153
O         9.54125374991708    4.46612210105363    2.53046334330387
C         8.89094411595329    3.25789169505665    2.55004663423002
C         9.50827471540580    2.19271885015635    1.90823262256887
H        10.46504235400726    2.34915910552199    1.43511242948962
C         8.88768599235844    0.95677563917539    1.88773818132965
H         9.36769984267714    0.12854274138003    1.38815255924079
C         7.65973997769280    0.77897869795761    2.50277127702154
H         7.17978826285847   -0.18778720752360    2.48497191673864
C         7.04849059403051    1.84672597007767    3.13730524335756
H         6.08509250569243    1.71805973975260    3.60797461359540
C         7.66214308451320    3.08606419846998    3.16355469468030
H         7.19144948478406    3.93802184491764    3.63344098652082
P         7.93576456725815    8.37235314590374    1.59007425900025
O         8.22030913740654    7.33814689462477    0.37814660904878
C         7.64535280314989    6.08881388150334    0.36270385969959
C         6.47613331444897    5.78895985194167    1.05409881253833
H         5.94382367575372    6.55688967717345    1.61838062972699
C         5.93700162902917    4.51477411921997    0.96523162203294
H         5.03360453342353    4.29831450280168    1.51380934750738
C         6.54707863561522    3.54579470608608    0.18809243547960
H         6.12304065745815    2.55565447499373    0.12086637706162
C         7.70673321605419    3.85105901877990   -0.50465454821589
H         8.18673976290523    3.10078957506675   -1.11518760843791
C         8.25887208283229    5.11585809537180   -0.41855583653827
H         9.15720252089484    5.37138941348384   -0.95970541164407
O         9.25870659308072    9.25063364794204    1.30257716455519
C        10.10167009127845    9.64041175170447    2.31189078442421
C         9.63336950122804    9.94524925200595    3.58235891135869
H         8.56911591567251    9.88588342122423    3.79070084574632
C        10.52588389585296   10.34903992054478    4.56113879312438
H        10.15776412025849   10.58740144759200    5.54766116471910
C        11.87679549721802   10.45269231757221    4.27836344439669
H        12.56851854924741   10.76519014952369    5.04599070393505
C        12.33698572837206   10.15758764633030    3.00573388763245
H        13.38918442270809   10.23576421915531    2.77738017891402
C        11.45532297122051    9.75085906617007    2.02135226602340
H        11.79826576413886    9.50706745863782    1.02827465612351
O         6.79342129503893    9.33330432987448    0.95600189856659
C         7.01114855938333   10.03836183801006   -0.21308650692529
C         6.70708208756982    9.46567765163327   -1.43887166978480
H         6.33486169312779    8.45287963393016   -1.47286137278520
C         6.87999290807854   10.20311585124477   -2.59713092698290
H         6.64268271189470    9.75866385388841   -3.55231094139075
C         7.35659507083165   11.50149033558299   -2.53431510282329
H         7.49147067592922   12.07241159006908   -3.44081206465797
C         7.66091423031268   12.06655477499563   -1.30705817541472
H         8.03420030519202   13.07854427260580   -1.25386405034843
C         7.49220519475251   11.33761698676197   -0.14358453347923
H         7.72437812882597   11.76015895656010    0.82274810799993
C         5.99405309957782    9.81033695595683    4.54612559234987
C         6.73517929874734   10.28524558792208    5.63367284626542
H         7.08817491732159    9.59438589536009    6.38601517428897
C         7.02759464071518   11.62995600838090    5.75744587049766
H         7.60003109551979   11.97914857400258    6.60562503521917
C         6.59393256450516   12.53296164657529    4.80068675625182
H         6.83090382144771   13.58228588885102    4.89732111447911
C         5.85237195000829   12.07972367347730    3.72109794100169
H         5.50739610163451   12.77786665562854    2.97172280010853
C         5.54904661010553   10.73836187212155    3.59836136139228
H         4.97903518794140   10.39028256747317    2.74893756556166
C         5.70715054884799    8.39149328131099    4.33867330224982
H         4.95478087693815    8.17673800689341    3.57350661313298
C         5.99540157964307    7.36418429045933    5.23740506735915
H         6.42803569377241    7.55238201906539    6.21294477577635
C         5.63377097753743    6.00397198523441    4.86036205737784
O         4.96792718262231    5.74394721292833    3.84725636022033
C         6.04524469610377    4.88500548001169    5.74430740902719
H         5.70783619095575    3.92039408006568    5.38356109421549
C         6.74071340506763    4.95336470295540    6.88331728837102
H         7.02854006416565    5.90774242104390    7.30382135896172
C         7.15905917859675    3.80015696429105    7.66599458439784
C         7.35343409175157    3.93728327644319    9.04132742113180
H         7.16971813484591    4.89527839709066    9.50689980028563
C         7.75944918389288    2.86315678654149    9.80843212813197
H         7.89591936316559    2.98263968819828   10.87365333299904
C         7.99832222971428    1.63485895620003    9.21332611101642
H         8.32352509729543    0.79634580689280    9.81136437875415
C         7.82663825862715    1.49012762803090    7.84619786633099
H         8.02445035976519    0.53804458865658    7.37506908619028
C         7.40876635599556    2.55974622089178    7.07793354935560
H         7.30505764214917    2.44265935365642    6.00966550643987

