81
CSD_code = NIVGOQ | q = 0 | S = 0 | Stoichiometry = C29H34AuCl2F6N3O4S2 | MND = 2
Au       -0.84735041239077   14.94268036505168    4.08866762183010
Cl       -0.24464290140323   20.29438857186039    2.39773691238004
S         0.53129840577618   12.13325533277644    4.25783952258643
F         2.31543979935913   11.45465397745386    2.39432578954385
F         0.28999856880442   11.13271375852854    1.74437730244992
F         1.06682931932109   13.13296931312165    1.88560849393632
O         1.50261992008216   13.03558889296876    4.78866167925438
O         0.37745497423922   10.85018800404012    4.83781946249978
N        -0.48605536172535   17.69544251239940    3.07693482905914
N        -0.84808360003731   12.92178554045378    4.08873945010853
C        -0.84804456376553   16.89346238226534    4.08867301125207
C        -0.61759948519024   19.01293627914879    3.44458098333051
C        -0.03286768381688   17.19964159813911    1.81891015999671
C         1.33115350465441   16.96353343806167    1.64550553777413
C         1.74514554924894   16.44958208448196    0.42416346984985
C         0.83150344262195   16.17590074582581   -0.57507342264133
C        -0.51548841551964   16.40692128335725   -0.37365654535639
C        -0.97753963653797   16.91930817762044    0.83129581047824
C         2.33397066329416   17.24357019070427    2.73813860027105
C         3.01350090734025   15.94741183488192    3.18615511597057
C         3.36583146530132   18.27308208173017    2.26735294720699
C        -2.45323169276691   17.15031711855433    1.04972220739240
C        -3.21941316990125   15.82681940015108    0.98111785206907
C        -2.99634016115783   18.15262003958292    0.02694958092408
C         1.07133353330666   11.92361508006124    2.46389345262342
H         2.79191901938052   16.25495382455286    0.25528151675764
H         1.17182416045056   15.77553443047362   -1.51799162634499
H        -1.21759126693352   16.18023424914940   -1.15999069467956
H         1.81634165438009   17.66439851721861    3.60568577225713
H         3.53990235834270   15.48130992611531    2.35853067385875
H         2.28499134323856   15.23727031760918    3.57234314140204
H         3.73335804451656   16.16167877607073    3.97230300156120
H         2.87236854781042   19.18034680023328    1.92504685424095
H         3.96397732081994   17.87936510383694    1.45072205533274
H         4.03372476771262   18.53102281962705    3.08551789871859
H        -2.60978912029590   17.57337238911534    2.04681555022417
H        -2.86512127555056   15.12922308745307    1.73784966733610
H        -3.10541897467615   15.36350719887309    0.00532980903723
H        -4.27803988830598   16.00461097609427    1.15286107515387
H        -2.92334526497719   17.75823782326155   -0.98247036495158
H        -2.43784920980910   19.08509619521665    0.07211917735464
H        -4.04194600758179   18.36569169936699    0.23500853215742
Cl       -1.45086978031536   20.29439218560632    5.77986331101696
N        -1.20975238787770   17.69542588735777    5.10053648539351
C        -1.07815213490062   19.01293367164359    4.73292515259789
C        -1.66277931906061   17.19959178442751    6.35860008687870
C        -3.02676734025489   16.96338917359704    6.53198942238791
C        -3.44072458317096   16.44929492868434    7.75327437136382
C        -2.52706994169498   16.17560074197834    8.75249416832388
C        -1.18009525209895   16.40675875321245    8.55111616984739
C        -0.71807266592492   16.91926536799658    7.34619937266965
C        -4.02953397327322   17.24340210412763    5.43931096491317
C        -4.70902192509321   15.94723678100926    4.99123900935877
C        -5.06146487135269   18.27281652639200    5.91013513290594
C         0.75760561148589   17.15048453404405    7.12785911629121
C         1.52392985912678   15.82707049581984    7.19641731425011
C         1.30055959202038   18.15280840885958    8.15069073068086
H        -4.48747947917092   16.25453991734823    7.92211295054538
H        -2.86736786913258   15.77512764414407    9.69537395965317
H        -0.47798899999554   16.18011795608678    9.33746084165666
H        -3.51185445043823   17.66428773649133    4.57180910768644
H        -5.23540536422177   15.48103687533393    5.81881122734606
H        -3.98049386412312   15.23714771464040    4.60501315722663
H        -5.42886724373645   16.16150360990599    4.20507970440078
H        -4.56805902309221   19.18008667041821    6.25249142762781
H        -5.65960668373689   17.87903186398901    6.72673643125287
H        -5.72935134809909   18.53076327785256    5.09196521880536
H         0.91418142936390   17.57361984828624    6.13080622212498
H         1.16969587571759   15.12945276925690    6.43966850314459
H         1.41000828421025   15.36372391564432    8.17219940537628
H         2.58253112391735   16.00501873759628    7.02466528804921
H         1.22755747286954   17.75837418510233    9.16008829015620
H         0.74195672051748   19.08521550229429    8.10552962201058
H         2.34614973087139   18.36601922356812    7.94269133642132
S        -2.22755786033957   12.13337243430188    3.91981750160454
F        -4.01170060971420   11.45504762560485    5.78340793942171
F        -1.98627866338601   11.13278367108433    6.43329396771648
F        -2.76283264121265   13.13317589055901    6.29210535333811
O        -3.19883959148011   13.03576909470286    3.38901458085115
O        -2.07388767284797   10.85024809804852    3.33990447839997
C        -2.76752933801789   11.92382225549404    5.71380081207390

