47
CSD_code = NIVGEG | q = 0 | S = 0 | Stoichiometry = C22H21FeO2P | MND = 8
Fe        2.63515762392212    8.29688105917398    0.58477299903550
C         1.16143863191267    9.00929480315701   -0.33592671081209
C         1.10144011319756   10.04512623604349   -1.44546777686848
H         1.65983735730524    9.65426825038685   -2.29862314057322
H         0.05655976396157   10.16918487221798   -1.74303313568681
C         1.67705539941738   11.40431215815182   -1.04037670875297
H         1.52768782205413   12.10485092536590   -1.86669695296307
H         1.12216744287512   11.78554199692106   -0.17781106906034
C         3.16424549577984   11.33665237147988   -0.69866549263988
H         3.56095449577301   12.33855684757975   -0.50339489550101
H         3.71591171036534   10.89190546782088   -1.53037321977758
O         0.17419162799087    8.45088626722809    0.08567064438693
C         3.38464179364073    8.08535913774664   -0.96042579864237
O         3.88901464484734    7.93922345968319   -1.98774873756649
C         1.64049728802262    7.14724763394350    2.54736832018273
H         0.70057194495491    7.35465677681854    3.02929758410864
C         1.87064263363109    6.17294385665944    1.58045439377212
H         1.14426395047748    5.48497886693568    1.18293565666724
C         3.25764880211726    6.19820478906754    1.24912227590141
H         3.76033937637977    5.47933432414486    0.62216557827062
C         3.88477958696476    7.16737068976544    2.05409779759823
H         4.94532005526946    7.33890330563699    2.14140038618578
C         2.87142721579715    7.80554008891704    2.81327095720508
H         3.04010916642935    8.50886126495412    3.61509529284124
P         3.38535701205666   10.27983278423251    0.79821222333145
C         2.64347675186481   11.39938182787303    2.03955367445258
C         1.43155103395804   11.03550576401815    2.61514655764629
H         0.98508806614979   10.08681622093039    2.34602517429968
C         0.80655306347234   11.88107535448808    3.51494214605572
H        -0.13535709157297   11.59527010374995    3.95947106893702
C         1.38991491044822   13.09361403816191    3.84318633303167
H         0.90496201385073   13.75367733293076    4.54714928546433
C         2.59629574562109   13.46308360186506    3.26819893930168
H         3.04857516307866   14.41036718892254    3.52372184437510
C         3.22213309863947   12.62262377597702    2.36641522226321
H         4.16556733800426   12.90725228043450    1.91975509039934
C         5.16662165171499   10.41139292279175    1.15502566410318
C         5.60867372479301   10.48991015925349    2.47338602079983
H         4.88629274967248   10.57792524710583    3.27370391658874
C         6.96088072692811   10.46226396327534    2.75959637977061
H         7.29557095737071   10.53057985861548    3.78449710192824
C         7.88485336352131   10.33877990135502    1.73469338953611
H         8.94095006345346   10.31554908234939    1.95896904364944
C         7.45129758772331   10.23086035553023    0.42304319582044
H         8.17003053154050   10.11848006636863   -0.37539248034715
C         6.09938080620860   10.25608130669012    0.13385736005214
H         5.76382678841553   10.14579141328167   -0.88676539877043

