99
CSD_code = NIVKIO | q = 1 | S = 0 | Stoichiometry = C53H43P2Ru(1+) | MND = 8
Ru       17.11077483725024    5.28117364162212    5.28329072878090
P        17.13464192004146    7.58524249472741    5.79571622291411
P        15.45389326465670    5.31407449135159    3.62860979536557
C        18.45207721171639    5.38100933329116    3.98821625067669
C        19.43093058811924    5.19922877273697    3.14952501169479
H        19.21351447127284    4.73832246510623    2.18942352903550
C        20.82236789956275    5.62180718155752    3.33477442408073
C        21.26678766276091    6.04595634477921    4.58622288051733
H        20.56848236435022    6.03440670935946    5.41295650270909
C        22.57116372885761    6.46040580038362    4.76172037614061
H        22.90587471909306    6.78883609409519    5.73438510060588
C        23.45213450858289    6.44992795134142    3.69130847130410
H        24.47324155577628    6.77065142875779    3.82821906337612
C        23.02058372475653    6.01995187369482    2.44741360332558
H        23.70620970331839    6.00492358830337    1.61372561033534
C        21.71323998967153    5.60727404464830    2.26523485108521
H        21.38136679767190    5.27679071408025    1.29146009342860
C        15.86405534544025    3.87067922231745    6.78090260859338
C        16.65063359062649    3.18561745602442    5.77491194838093
H        16.26830099152671    2.37546075936286    5.16568225297409
C        18.01628960626972    3.42444417196064    6.06380696781833
H        18.85939058756446    2.90784024855716    5.61959506484146
C        18.10377117514313    4.41669951039721    7.07414612886986
H        19.00781728816317    4.67973574250777    7.60775729576695
C        16.77088677983371    4.62015316728567    7.59953500423196
C        16.30791307638676    5.25078104508863    8.76252341394459
H        16.99915863498689    5.75691586486671    9.41985728651227
C        14.96939141923052    5.15987116819226    9.07202770286970
H        14.59942956631093    5.62876908421489    9.97103102703801
C        14.08125626426082    4.43139164177857    8.26893455933135
H        13.04625936441963    4.35592148290698    8.56515877337503
C        14.51259334164005    3.77067023789372    7.14127823942390
H        13.83925101365570    3.14913872819781    6.56953936195825
C        15.89656252201946    4.36869726003517    2.12910295565260
C        16.85521598730488    3.36217397968658    2.17657250764113
H        17.38407677274910    3.16954632268015    3.10158660732795
C        17.13884237392263    2.61336791973490    1.04755495909271
H        17.88462586051148    1.83362011731157    1.09349676338567
C        16.46546924299343    2.86209378998914   -0.13684597374010
H        16.68749367621771    2.27900291269988   -1.01721268784878
C        15.50433078767156    3.85936377550974   -0.18831631074078
H        14.97520753889790    4.05257377247727   -1.10893837115603
C        15.21575204295097    4.60835828061681    0.93747798928883
H        14.46227356018464    5.38148904403010    0.89329709555034
C        13.86181497326302    4.54106215490976    4.05072566491622
C        13.58296393836892    3.22992523933797    3.67155323437049
H        14.29893419262669    2.67024038908778    3.08583641635408
C        12.38322219392451    2.64457715357475    4.03532297411429
H        12.17141333294042    1.62936291296004    3.73516120926718
C        11.45562725228592    3.35594242999825    4.77987754616646
H        10.51992611052047    2.89596542859013    5.05828495965729
C        11.73371475374679    4.65670372985261    5.16877700581303
H        11.01479345169563    5.21356178505142    5.75088688740588
C        12.93421358126290    5.24497916187998    4.81556702920744
H        13.15871024932580    6.25474770335266    5.12609018485334
C        15.03029295286390    6.91773072703451    2.87878199652227
C        13.74808788807537    7.35646852493119    2.57136207745500
H        12.88537316946811    6.75281606769931    2.81258132820106
C        13.57765855438799    8.57596252488901    1.93728603718541
H        12.58082372342656    8.91783359164738    1.70290879868924
C        14.67359931505790    9.34872525689088    1.59219906183724
H        14.52954564245382   10.29452941399385    1.09274613189792
C        15.95504635885461    8.90371488946678    1.88036443107111
H        16.81367924221590    9.49780705307315    1.60491792230087
C        16.13047823003977    7.69497656191772    2.52498613330443
H        17.12132355288799    7.32125262780909    2.75781748657711
C        15.48046256762855    8.34688571760828    5.76359688736629
C        15.16828556653319    9.49489236003266    5.04422144429964
H        15.92222309523180    9.98035898971745    4.44380486692176
C        13.88680597469494   10.01409023918795    5.09451728632755
H        13.65057848144344   10.90331579539497    4.53040748937969
C        12.91279691261411    9.40688025371616    5.87010313938828
H        11.91900507423577    9.82480356251582    5.91683468501927
C        13.21672746861243    8.26081607069139    6.58694817371344
H        12.46252639827943    7.78297550796179    7.19526470555500
C        14.49051400397469    7.72394019571758    6.52136338212663
H        14.72569226312969    6.81895789930970    7.07037681077166
C        17.65505891426113    7.85292548485218    7.53076295336308
C        18.98341652813181    7.53736669479253    7.81128150845278
H        19.60738464974558    7.14586498148728    7.01715133520892
C        19.50105885518770    7.73855116428924    9.07541905442840
H        20.53061270106852    7.48936533281656    9.28466290499085
C        18.69675986538573    8.26791942769990   10.07369871868513
H        19.09693122683413    8.42513766081087   11.06348052929603
C        17.38324854423401    8.60407772902017    9.79489365997728
H        16.75907106533314    9.02989884787952   10.56611142855388
C        16.85870902551644    8.40105321667620    8.52846309730479
H        15.83320623660430    8.67413326451766    8.32742705599343
C        18.21022487453167    8.87600730922392    5.08031945285639
C        18.17640447202041   10.14628193740683    5.65720632419841
H        17.49915783510979   10.34975930962695    6.47555469284004
C        19.01063309838622   11.14188301335367    5.18796998411310
H        18.97624736599546   12.12371966480668    5.63537116621740
C        19.89732517771486   10.87999029637415    4.15391082148623
H        20.55286163705030   11.65889764300650    3.79597847880642
C        19.94583032024582    9.61700982034856    3.59058030174779
H        20.64318519550390    9.40117348322232    2.79524616474755
C        19.10380297339808    8.61899973956907    4.05117078140555
H        19.14677561332100    7.63142242226456    3.62140051156390

