69
CSD_code = NIVLOV | q = 0 | S = 0 | Stoichiometry = C25H37ClIrO2P3 | MND = 6
H         6.82282732406730    8.21796366360281    2.21177624727560
C         3.59341568256832    8.78484765463779    2.01026453203962
C         2.47628381110500    9.20196416666364    1.30036898784951
H         2.35745121126938   10.25123070881035    1.07301962670058
C         1.50253211997213    8.29164614695806    0.93060861584969
H         0.64179266930924    8.61873114574403    0.36602644271524
C         1.62170186372807    6.96226055375454    1.30466965481534
H         0.85990999107189    6.25014887792370    1.02257520745020
C         2.69402703611351    6.55432932173005    2.07717479436948
H         2.74677631167783    5.53023458858504    2.41715590131827
C         3.68684437227722    7.46085317366272    2.43572957104557
C         5.77336923572990    5.41962848231588    2.98909301325199
H         6.79864813830398    5.47566523862677    3.38176909132198
C         5.84109316753975    5.42763447879829    1.46290820617645
H         6.49829186594376    4.63208635996580    1.11704680259423
H         6.23527602596378    6.37526137465448    1.10107872690827
H         4.85595806723259    5.27669332881445    1.02507826258928
C         5.13393335573020    4.12743244168162    3.49019973540528
H         4.10699368068029    4.02098848053696    3.14688597528433
H         5.15250801771883    4.05527050564475    4.57421582485601
H         5.70132244234103    3.28666035338049    3.09291824204437
C         4.06089688113446    6.59983090890639    5.11597317526410
H         3.49986699256671    5.68163585877651    4.90579254021604
C         3.07965476465138    7.72353492422172    5.43599863394792
H         2.67420228171665    7.59262171123969    6.43777981251189
H         2.25259786975472    7.73825750200532    4.72815404873282
H         3.57209176360801    8.69559976014101    5.39100418411858
C         5.03874088037124    6.36041885529906    6.26347074312599
H         5.47661523170747    7.30078982674616    6.58953347026163
H         5.85819273764386    5.70967393690012    5.96021376481165
H         4.52887189343451    5.90998688540063    7.11372692277876
C         5.65226359738570   10.81850522245655    1.17999242029161
C         4.97417590088573   11.27307545203892    0.06057171686727
H         3.93929815679639   11.00668023437732   -0.08751259689639
C         5.62074704381037   12.06033264302559   -0.87774378547273
H         5.08978228088135   12.39546244643279   -1.75666059498408
C         6.93945943310356   12.43384724231387   -0.68058845243025
H         7.43644968912393   13.07000261808244   -1.39837655583970
C         7.62204534632247   11.99134255141407    0.43864210045286
H         8.64633946017597   12.29702964205504    0.59462468539502
C         6.99221392475317   11.16586063591388    1.36316623537746
C         9.52851608063810    9.87593149272962    2.22146969924081
H         9.77169584407400    9.11203293623458    2.97459246119106
C         9.38395415803776    9.17378537924006    0.87299561822029
H         9.19382794606747    9.88717718955499    0.07310275438664
H         8.56503321587008    8.45905052530609    0.90000156424794
H        10.29827172146747    8.63044691439270    0.64234583076471
C        10.67166941022381   10.88720016236442    2.17438093607364
H        11.57815455190813   10.36436480211431    1.87149096449985
H        10.86197411542205   11.34045425111655    3.14323127433129
H        10.49020814756920   11.67495813254369    1.44642769151888
C         8.23843135579149   12.01521376092877    3.80400683312386
H         8.94235984618160   12.61049087823530    3.20911169805220
C         8.88342449590774   11.61201155663122    5.12833737103438
H         9.34497851080472   12.47491534446887    5.60609222692811
H         9.64181487529651   10.84233338878986    4.98835738886911
H         8.13346552932169   11.21384455818076    5.80668455121347
C         6.96765771782466   12.82731428266325    4.02457134442303
H         6.18373695083988   12.21455207466607    4.46674858142450
H         6.58665389581479   13.22342935861586    3.08452705974258
H         7.16991703777212   13.66126728741817    4.69480565412417
C         6.13138618790826    9.50753104602766    5.31253782411612
O         4.07312582299108   11.08089929194801    3.33872734668623
O         5.92027385695166    9.95174641200531    6.34407478251952
P         4.81117327305344   10.02357201512607    2.62044001401540
P         5.02821042565138    7.02431917586254    3.58742854862812
P         7.86374638626724   10.48997419565040    2.81359728143666
Cl        8.29802406744570    7.47110914485882    4.55587323040429
Ir        6.49645205269279    8.80095453803698    3.60451353840441

