26
CSD_code = NIVPUG | q = 0 | S = 0 | Stoichiometry = C6H12AuCl2O2PS2 | MND = 4
Au        2.92013229049763    7.65892356284211   11.36626785883516
Cl        2.93894376582537    9.27940796160259   12.94657681480127
Cl        2.86216468130048    9.26769716489200    9.77502353592291
P         3.00683624704066    4.67969064914902   11.37514033943989
S         2.90927033705180    5.88164159706186    9.75255387222515
S         2.98752096109702    5.89456697048789   12.99146312402970
O         1.86337047278343    3.58311881456393   11.47310780921665
O         4.25547193943609    3.70285109319822   11.28350797594995
C         2.38876731724580    2.27122377198664   11.14551209345419
C         3.86613256171527    2.35074444986640   11.63523690227093
C         4.81790046089417    1.39916394328403   10.92912877315884
H         4.89877905823969    1.64200971021200    9.87441082794875
H         4.46848643941635    0.37659961825247   11.04073539569651
H         5.80562753214590    1.48430540730293   11.37401310023173
C         2.28881147244752    2.10548286488392    9.63448628798092
H         1.26207710555878    2.29300522080131    9.32844059633067
H         2.56701507972540    1.09934512755905    9.33533984632544
H         2.92711576607551    2.83152558803818    9.13154110142213
C         3.98041531244475    2.22293402063950   13.14898826963337
H         4.98155631166466    2.52180532716119   13.45145986499323
H         3.80797954643468    1.19882232012160   13.46615104717688
H         3.26925099402822    2.88735265786507   13.63925366704481
C         1.53881432217648    1.24001732099765   11.86956287132858
H         1.43008480365570    1.49386301075630   12.91919375750454
H         1.99335264893570    0.25743753542439   11.77886814968756
H         0.54892257216291    1.21266429104980   11.42223611739021

