87
CSD_code = NIVRER | q = 0 | S = 0 | Stoichiometry = C38H42ClI2N3Pd | MND = 4
Pd        2.44747354906351    4.44893438239389    2.53749595351067
I         0.71484601954674    3.11075774689612    1.06928546992549
I         3.87621728657157    5.92153189176506    4.19426465897551
Cl        5.02250725053649    2.58061903923477   -2.21301922770089
N         4.17412182449476    3.68673075535667    1.48104003972408
N         0.09600434053598    6.11093918661532    3.05230242794317
C         1.14013314200139    3.57194771100534    5.34522205053693
H         2.19972218690748    3.74785466544871    5.12672459023552
C        -1.02929706757217    0.74667944126687    3.98904138003332
H        -2.08160386298840    0.50477031600682    3.99050157594653
C         2.51015907140986    9.64430722426676    3.20792127698726
H         2.38242974565759   10.41389574540132    3.95439779011867
C         2.15096711249718   -0.51383463069024    2.61083696359768
H         1.77163012318598   -1.38265941788552    2.09276494532529
C         3.85690037355667    8.48476677220770    1.58658275924608
C         3.47692421581220   -0.19679536043987    2.55928115490132
H         4.17207613432426   -0.80810472118409    2.00252261092276
C         3.69100878333582    9.50797507681735    2.54090425899808
H         4.52359184082814   10.16390591868068    2.74723630575055
C        -0.24336074437974    3.13378887580459    7.51309768715943
H        -1.05590944698144    3.78829802473100    7.21326653668044
H        -0.16145185198388    3.18476189793850    8.59718984774941
H        -0.49908353428253    2.11168789296611    7.24570162533798
C        -1.40879463640167    8.68792061360601    1.62780019038497
H        -1.75771320055045    8.54834841449647    2.64625955507414
H        -2.26173536467559    8.99556508636816    1.02584819438431
H        -0.68176111126532    9.49595061890765    1.61377067696658
N         0.47713215792231    4.69818568894528    4.68561133451853
C         5.09834450314001    8.31968258535140    0.93782660397477
H         5.90158433936242    8.99554280284951    1.19344737987015
C        -0.59321496920222    1.90681545582753    4.64000792826217
H        -1.33689293697449    2.52711058636098    5.11378677884900
C         1.69237295722309    1.45619746147195    4.00265194193646
C         2.77970448875824    7.59732945936460    1.29762856736403
C         5.28773519397575    7.32972520351622    0.01816709601105
H         6.24142837829937    7.20474872644460   -0.47361303468192
C         5.20180745591221    2.93092679080984   -0.53364949426200
C         5.34598317244208    3.52319147928838    2.09384918793814
H         5.39778478884541    3.77019244372162    3.14547696330971
C         1.45176191289705    8.76760287258675    2.94134110790648
H         0.54229683628711    8.89015596127334    3.50731101987223
C         6.42413790687076    2.76825669045368    0.09918173806624
H         7.28767818799153    2.41729789051068   -0.44321529108107
C         1.55027318036933    7.76755195513145    2.00477383092137
C         6.48417176084799    3.07447755482300    1.44666263851109
H         7.40514320289215    2.96875623396964    1.99793012033411
C         4.10842216230979    3.39147995509043    0.18694537467836
H         3.15693937398101    3.50291862537835   -0.31566624261484
C         0.38993254655204    6.80812365156246    1.79877207841480
H         0.73045571406394    6.00037296395936    1.14096004580716
C        -0.27856247024077    7.77468008742462   -0.37065478260911
H        -1.05977922280723    8.25874231601331   -0.95144684172376
H         0.03391502832022    6.88348584125937   -0.90946303331483
H         0.56667049358703    8.45609348692135   -0.30166978263437
C        -0.81233014744912    7.41409341487755    1.02456316476366
C        -0.13048425273390   -0.05167248737879    3.34666663745558
H        -0.45196319446889   -0.93967677951281    2.82313034951443
C         3.01346988946482    6.58624587210403    0.32884334853915
H         2.21349869266612    5.93268308801632   -0.00508934675073
C         1.09945534107104    3.53423893270762    6.89751633534981
C         1.23702650814455    0.28677125580272    3.32716328822353
C         3.08107426722076    1.74433233196859    3.93714101624724
H         3.51219183577886    2.56587257173203    4.50207345247538
C        -0.78870212378674    5.31539037753923    5.04940022006210
H        -0.79246534975822    5.65023910612519    6.08574036596720
H        -1.61732534217671    4.61389311815028    4.89530647488006
C         2.13080808294862    2.47655921300853    7.32078568579801
H         1.90998958954985    1.51267025180348    6.86720308084234
H         2.11543140022648    2.35636116077140    8.40115438571983
H         3.13541739968113    2.77658922508140    7.03258383860356
C         0.73100667603304    2.27054445524646    4.67545917160603
C         1.55697328323384    4.88291258658223    7.46430839673604
H         2.47529872815553    5.21486053747307    6.98655814257841
H         1.74844029819528    4.78389239048864    8.53034819128022
H         0.81180587164374    5.66210316395346    7.33472595881185
C        -1.90415565388375    6.35337268480745    0.84370172490845
H        -2.44147294887153    6.14836379887502    1.76483548192561
H        -1.48196152134444    5.41731938603370    0.48653930359234
H        -2.62880514744783    6.69823229460331    0.10960743743394
C         4.22673436322145    6.47197468811283   -0.29958177158284
H         4.37070905469948    5.71966469277404   -1.06275001016378
C         3.94269380694894    0.93176348919386    3.24622555856004
H         5.00149521113345    1.15320865583868    3.23527719462676
C        -0.87226637100965    6.48814711279702    4.07006073546057
H        -1.87289202788733    6.60062911033070    3.65525582963526
H        -0.57627866810956    7.42678706702030    4.55369957379168
C         0.88955412616044    5.13654529484440    3.49615225076740

