77
CSD_code = NIVVIY | q = 0 | S = 0 | Stoichiometry = C36H30F2N6NiO2 | MND = 4
C        -0.63630970567138   13.29169069263968    9.81413497908332
C         1.36166035693856   13.94893163916732    9.07038904927239
H         2.25387581133309   13.91265131556698    8.47992532822235
C         0.97672515968630   14.82399852965708   10.03086956242583
H         1.47100453762787   15.68746101419357   10.42645936199638
C        -0.97690198477842   15.03674806527697   11.55271404299380
H        -1.98277740452106   15.30487907666329   11.21510372445964
H        -0.44705901674044   15.95571027061907   11.82580683532513
C        -1.08121951402819   14.13316019213790   12.75871701440777
C        -2.28474956047369   14.01034976050683   13.44020043102547
H        -3.15533069588923   14.54932615175770   13.09567218308636
C        -2.37975266923677   13.21059603836864   14.56535302222006
H        -3.30796968038647   13.10627064270050   15.10469773182045
C        -1.25371417434819   12.53245257508624   14.99628621998192
C        -0.04380918425112   12.63187037626001   14.33234859265502
H         0.81073980934422   12.08007024003173   14.68846471426821
C         0.03500777796580   13.43951594434546   13.21362834790457
H         0.97371062461491   13.52201703716473   12.68646055855701
C         0.42676369530634   11.83045376729906    8.16329490409080
H         1.38435080882157   11.77531270639371    7.64456735653875
H        -0.38831388321101   11.80166489096676    7.43545069364337
C         0.29573044128076   10.58407532085148    9.10142721849993
C        -0.91325512605581    9.74962994235896   10.96429040318339
C        -1.39348457994004   10.20728893981268   12.19306682058461
H        -1.53176951821379   11.28191056361113   12.31570677002129
C        -1.68167179035908    9.32681094158027   13.21430691344509
H        -2.05992526381358    9.69327729351542   14.15848359167141
C        -1.48138176051120    7.96852669790604   13.02745144212594
H        -1.70662717572819    7.27438075280631   13.82351427837249
C        -0.99783350110996    7.50766705126117   11.81449292512361
H        -0.84842803030720    6.44810026228072   11.66464381045735
C        -0.71530248074089    8.38245717911233   10.78231007287527
H        -0.34933472099267    8.01829435499745    9.83663697991754
F        -1.33907738449052   11.76226509012376   16.09494233942445
N         0.36383437618207   13.02729381236124    8.95086293499074
N        -0.25180882964246   14.41289014011261   10.47267082994098
N        -0.69477673802055   10.71207203818027    9.97424152513111
Ni       -2.07311584991138   12.06939328630287    9.94342963481026
O         1.11462108747411    9.68614023403990    8.98871800617013
C        -3.50991929271714   13.29169098412951   10.07272907378089
C        -5.50788370621514   13.94893748874761   10.81648456668529
H        -6.40009646781515   13.91265932120545   11.40695253170331
C        -5.12294980746304   14.82400451327779    9.85600361959438
H        -5.61722808534755   15.68746959016691    9.46041778149581
C        -3.16933183588015   15.03674158785481    8.33414439606054
H        -2.16344798495667   15.30485735218281    8.67174153882373
H        -3.69916533175485   15.95571126936267    8.06105844792279
C        -3.06504376165269   14.13315058760778    7.12814124481585
C        -1.86152492266586   14.01032270022398    6.44664049008919
H        -0.99093214876815   14.54928786288558    6.79115475523022
C        -1.76655001638428   13.21056455463912    5.32148833005711
H        -0.83834193109143   13.10622574474023    4.78212993722793
C        -2.89260364563973   12.53243518979917    4.89057305259809
C        -4.10249668488930   12.63186983997133    5.55452955826205
H        -4.95705869560659   12.08007990446925    5.19842746100595
C        -4.18128708987557   13.43951853878418    6.67324977697440
H        -5.11998055949253   13.52203362425777    7.20043056154950
C        -4.57299147164168   11.83045265113043   11.72356791577513
H        -5.53057748761929   11.77531226450880   12.24229763930163
H        -3.75791264869856   11.80165840467806   12.45141058406590
C        -4.44196344147984   10.58407736717373   10.78543050058046
C        -3.23298445996892    9.74963704927018    8.92256003128673
C        -2.75275157892577   10.20730074860268    7.69378648645942
H        -2.61446024178040   11.28192237037893    7.57115358703484
C        -2.46456861709911    9.32682726434434    6.67254117335551
H        -2.08631124436963    9.69329703976808    5.72836730818882
C        -2.66486593381380    7.96854316261449    6.85938876086946
H        -2.43962381393926    7.27440060256781    6.06332213253525
C        -3.14841824784421    7.50767893996211    8.07234400587787
H        -3.29783029857419    6.44811228167869    8.22218654181084
C        -3.43094564062228    8.38246455611554    9.10453158209432
H        -3.79691633610523    8.01829818814986   10.05020217738066
F        -2.80726736533196   11.76224520371937    3.79191723464150
N        -4.51006060364995   13.02729560759350   10.93600462212052
N        -3.89441922324861   14.41289243820350    9.41419631100492
N        -3.45145792048291   10.71207461869039    9.91261439574132
O        -5.26085571978941    9.68614375852503   10.89813873527218

