80
CSD_code = NIVVOF | q = 0 | S = 0 | Stoichiometry = C28H42BIrN8 | MND = 6
Ir        3.90246654249235    2.76101398678781   10.79853817410009
N         3.10165770008214    0.95401846587243    9.89055964465892
N         3.95110035752736   -0.08611431238477    9.79388547760436
N         4.84276801417949    1.37581108566802   12.24890325221980
N         5.45882279253995    0.29917372596211   11.74347754818287
N         5.66770994210745    2.37191215174203    9.51902172697465
N         6.11509543957726    1.10994763159522    9.47322327309665
N         4.04288335346037    5.49879294491145   11.86710561190404
H         3.07236058060873    5.46325668831532   11.55933100597438
N         3.67212523915069    7.69269518616023   12.56575113591000
C         1.93065381783407    0.55988918825193    9.39811435911786
C         2.02951407369476   -0.76985753596226    8.97588555339454
H         1.25561037216734   -1.36731671220775    8.53682115657097
C         3.32865231517259   -1.14633401034958    9.24387549774340
C         0.69922526326393    1.38831373887166    9.29614315746255
H        -0.12103545635965    0.89246877465012    9.81523024552818
H         0.41370691634661    1.49441268749796    8.24922959448071
H         0.85273977198411    2.36966406103469    9.72383470396171
C         3.96458946083967   -2.46732476373324    8.99199572514193
H         4.80837562594444   -2.36978215444143    8.31079147831186
H         3.23252992954507   -3.13825840287711    8.54894852324683
H         4.32728144568370   -2.90682037530849    9.91979733246993
C         6.46552191467434    3.11330076334064    8.75875649283496
C         7.45878349206101    2.30003284716484    8.20479846929212
H         8.25156933057187    2.59934266044925    7.54859176390992
C         7.20189984752835    1.02948062882691    8.68237015735212
C         6.29920849957188    4.57485722270918    8.53582436769247
H         5.59970438432465    4.75323491338618    7.71970080993888
H         7.25728968577078    5.01668003637392    8.26955906499703
H         5.91486568039420    5.05411418079826    9.43122905029386
C         7.95222798314154   -0.22499288735966    8.40775132665815
H         8.34278464656628   -0.65386742533718    9.32931206826692
H         8.78358909324020   -0.00934350421040    7.74108049043112
H         7.30808044166643   -0.96625483390246    7.93745909551460
C         5.03808049201783    1.37583893995032   13.56278554008291
C         5.80670325220514    0.26186778408364   13.91323561560002
H         6.13392744535723   -0.01814936567113   14.89467934587845
C         6.05541228828997   -0.40080827466076   12.72680694922413
C         4.49774034092310    2.40083256636894   14.49612347264248
H         4.50859750356426    3.38195002184520   14.03078206603390
H         5.09757794829068    2.42266253909412   15.40361945318428
H         3.47093256775624    2.15764371721693   14.76756248400637
C         6.83370193955165   -1.65083944562371   12.51782833530562
H         6.20931700801534   -2.42823348423136   12.08035785817038
H         7.21382904569848   -2.00291105311485   13.47371302623041
H         7.67423608267569   -1.47666706180495   11.84781748792770
C         4.73814754975681    4.33986032117059   11.63637886759433
C         6.08314008564363    4.38483436440921   12.05232011479117
H         6.70215689136444    3.51468322764745   11.90704376498562
C         6.61698530217131    5.50898567106248   12.63910427978612
H         7.65042461691585    5.51950689615278   12.95492942727002
C         5.84453553134651    6.65116243363507   12.84350408537746
H         6.27663549027928    7.51694792921512   13.31168827114399
C         4.51620990580350    6.63233542464068   12.43597178004057
C         2.26824099047741    7.55527635950051   12.24824508000236
H         2.12265761285411    7.34769541373980   11.18536790247542
H         1.75780580145470    8.48564404433434   12.48252505554303
H         1.80135883437065    6.75548146410732   12.82944564685045
C         4.13885524316516    8.90562474828242   13.19277558380319
H         4.38515050212989    8.74675045597794   14.24784370469523
H         3.36432126734497    9.66550483771488   13.13121004371866
H         5.02543603978607    9.28442926762551   12.67992193767443
C         2.92682963574669    4.03253138905818    9.45454691850491
H         3.53416480843218    4.87277733723470    9.09264516070322
H         2.64935686684683    3.47576791768117    8.55040525071150
C         1.66333032632122    4.59949121813991   10.05565770758481
C         1.29361489950212    4.15098090677820   11.25757990216817
C         2.17135699838728    3.11488726158709   11.91758154939509
H         1.58993273747114    2.18829276699913   12.00740956599927
H         2.35085174190124    3.43522834024152   12.95264696819868
C         0.90893764127757    5.58160674730235    9.20177866150378
H         0.39854704946836    5.05283806182189    8.39623328445648
H         1.59805238203778    6.28900871855482    8.73906068190980
H         0.15939913279703    6.13680268535807    9.76213444523312
C         0.04227732414341    4.53162198113521   12.00167189918565
H        -0.36136367627244    5.49044070107600   11.68179477888838
H         0.23724663523977    4.57404180320161   13.07325159722583
H        -0.72741339327712    3.77590558647359   11.84107824943188
B         5.41581065135336   -0.01832689497037   10.24303053486866
H         5.95529216206258   -1.04625292263855   10.03220832875038

