77
CSD_code = NIVVEU | q = 0 | S = 0 | Stoichiometry = C36H32N6NiO2 | MND = 4
C        -0.32032259507342    0.26696970090090    1.86361948750507
C        -0.97513932660887    0.66971655111186    3.95467562538357
H        -1.60996641446476    1.03412548160455    4.73617777145432
C         0.21631494048253    0.02699194477368    4.01430402430047
H         0.80746950013430   -0.27100173596353    4.85554739676769
C        -2.46153916997379    1.48362733682745    2.13525607665032
H        -3.04494232606205    1.82316736881137    2.99811308457836
H        -3.07488596311857    0.78011254494239    1.56456149501443
C        -2.10616217427275    2.66649570920664    1.26631620992747
C        -1.01811359643228    3.47470146386781    1.57429615984106
H        -0.39835817464389    3.24605551791756    2.42953575718338
C        -0.71536712929841    4.57181444792268    0.78722231870209
H         0.13906117339659    5.18543582276966    1.02929694410674
C        -1.50315967031682    4.87872903391187   -0.30912281210282
H        -1.26796108858216    5.73674766347215   -0.92118511475350
C        -2.59217636261929    4.08109452919504   -0.61771472035652
H        -3.20966402990450    4.31268400234448   -1.47302460870084
C        -2.89246122568529    2.97877771966464    0.16496136753443
H        -3.73601315587912    2.35262720635771   -0.08595467008091
C         1.83456305627159   -0.81157053448985    2.31551688442742
H         1.65272976947893   -1.79315110920683    1.86403919008448
H         2.48795871545370   -0.93699001206942    3.18067836347052
C         2.58319587269435    0.07634903237865    1.28089464833153
C         2.24004023252982    1.58675676952624   -0.53286181145575
C         3.56488637136513    1.76831155486207   -0.93380034723338
H         4.34161057708416    1.14483207786736   -0.52206984356507
C         3.88051618667449    2.76073748667080   -1.84442118186601
H         4.90960759797509    2.88677437475345   -2.14943817699901
C         2.90164836084759    3.58558103778439   -2.37120797847452
H         3.16153980283328    4.35232037877059   -3.08606130171641
C         1.58585063894058    3.42589910735545   -1.96438772018751
H         0.81241817747421    4.07368906962265   -2.35292776253800
C         1.26357413792719    2.44374200168340   -1.05332190699589
H         0.24038328899443    2.32566950295107   -0.69341129585558
N        -1.28923764059232    0.80625147770405    2.63195180539951
N         0.59753326740115   -0.20957327868421    2.72619282436186
N         1.79145246311203    0.59505726243516    0.34330046954673
O         3.78988623513975    0.22809469185741    1.42122291090313
Ni       -0.00000614780692    0.00000919756924   -0.00000791173678
C         0.32030193496910   -0.26698233076589   -1.86363840676173
C         0.97511886966637   -0.66973676289755   -3.95469145610968
H         1.60994749464494   -1.03414588264046   -4.73619212837763
C        -0.21632873001760   -0.02699995103268   -4.01432219200389
H        -0.80747896662999    0.27099945410159   -4.85556650039208
C         2.46151243550226   -1.48365685692744   -2.13527049837938
H         3.04488948481340   -1.82323691179639   -2.99812959480624
H         3.07488595652477   -0.78013645545606   -1.56461137945301
C         2.10614734439062   -2.66650270101071   -1.26629546051637
C         1.01812244855489   -3.47474311349344   -1.57426645416087
H         0.39836361588451   -3.24612633711009   -2.42951096386342
C         0.71540041403969   -4.57184926137684   -0.78717517269302
H        -0.13900869070711   -5.18549807434692   -1.02924458023994
C         1.50319578694991   -4.87872639955805    0.30917824007707
H         1.26802411213797   -5.73674696206935    0.92124698551730
C         2.59218521009692   -4.08105522941557    0.61776532477004
H         3.20967505708849   -4.31261451006944    1.47308205549600
C         2.89244522299320   -2.97874378108531   -0.16492839223987
H         3.73598262838206   -2.35257099854240    0.08598095827258
C        -1.83457644489417    0.81157642164880   -2.31554056424756
H        -1.65273752674124    1.79316162842103   -1.86407674083298
H        -2.48796975965454    0.93698897371382   -3.18070403533005
C        -2.58321306878825   -0.07632149385888   -1.28090032334569
C        -2.24004738479701   -1.58674343410846    0.53284370837785
C        -3.56488680039766   -1.76829511766115    0.93380689704087
H        -4.34161681115750   -1.14480817378680    0.52209815192016
C        -3.88049835506305   -2.76072105290520    1.84443599815629
H        -4.90958120688701   -2.88675085188198    2.14948579199967
C        -2.90162147577753   -3.58556779251023    2.37119990456876
H        -3.16149855857657   -4.35230481488451    3.08606072282600
C        -1.58583174246508   -3.42589363576685    1.96434943171573
H        -0.81239326504932   -4.07369046373076    2.35286470721341
C        -1.26357323419358   -2.44373789484014    1.05327731418714
H        -0.24039177901559   -2.32567639894968    0.69333334766129
N         1.28921276655441   -0.80627491698989   -2.63196688236181
N        -0.59755013538130    0.20956569693456   -2.72621196303920
N        -1.79146611907474   -0.59503353210593   -0.34331176668338
O        -3.78990490280022   -0.22806248022676   -1.42121573481798

