85
CSD_code = NIVVOE | q = 0 | S = 0 | Stoichiometry = C38H36N6NiO4 | MND = 4
C         5.39941149895695    8.78031506248237    2.73653949687313
C         7.61630702035566    8.74263543901420    2.46489647806726
H         8.63627879955093    8.51977818004193    2.70309734180320
C         7.08068917248608    9.40669774649321    1.41192430739901
H         7.55101822853919    9.86624301529524    0.56708224194340
C         6.73226348968177    7.71741125702098    4.54829402513023
H         7.79789613936035    7.50275008692745    4.68430494702642
H         6.18566222753360    6.76941085625941    4.55980122095767
C         6.23351571138631    8.59747026395847    5.66906198560499
C         6.55439133361633    9.94720582159286    5.69858281170506
H         7.15293833596908   10.37665845021263    4.90825071622902
C         6.10852634688261   10.76766638788413    6.71830312936970
H         6.36373686333731   11.81434912277158    6.69609065248371
C         5.32952770191855   10.23998600143754    7.74404551039071
C         5.02129759046860    8.87751609777615    7.72737170506281
H         4.42145776794241    8.47863328191704    8.53022856494209
C         5.46560269279664    8.07118644930667    6.70108886415517
H         5.21609741635778    7.01950107449786    6.70273676013196
C         5.03873785762128   12.34184909585930    8.81679260700767
H         6.10169597624253   12.58673983717088    8.90838134124586
H         4.51116131720566   12.69727964620688    9.70031949724883
H         4.62446357749164   12.82538698419274    7.92687359580655
C         4.79116341268611   10.15051148433856    0.79669183688792
H         4.06703292927456    9.47592707374835    0.33208318409941
H         5.32053593689542   10.70560516668583    0.02116342384325
C         4.01713197778186   11.17074905091019    1.69374416032970
C         2.92847890516563   11.39706374333392    3.79033665176161
C         2.09147083381042   12.47402710579248    3.50283466434757
H         1.94496225254432   12.77699267506065    2.47933431002579
C         1.44778724649114   13.13494205337532    4.53214355107614
H         0.79508217664304   13.96460729432821    4.30045280678874
C         1.61154071560867   12.73684991570449    5.84852813208641
H         1.09003140532220   13.25170182517950    6.64247612236354
C         2.44010186665051   11.66497766590834    6.14128752721787
H         2.56310246162569   11.33655474709385    7.16434765641549
C         3.10004664966465   11.01199264932026    5.12200938685418
H         3.76829941911798   10.17532380197190    5.32549156862706
C         3.51006523424728    6.94973504009852    3.85966204779496
C         2.81642795902833    5.32807724526995    5.22426896374219
H         2.31822315885758    4.89552056083416    6.06737754443696
C         3.52118882352810    4.74593260310250    4.22374613260070
H         3.74711294806445    3.71587886799482    4.03746304288126
C         4.63467169467310    5.53802277643152    2.14851491784056
H         4.85939659502853    4.46867169399302    2.07034329298363
H         5.57940359123800    6.09019416330306    2.14547807720647
C         3.79268693196418    5.97893994736074    0.97529058883870
C         2.44529064743079    5.65268351281987    0.91549793035572
H         1.99038827893752    5.09014056669201    1.71797034159025
C         1.65882393972786    6.04797694919315   -0.15076203768880
H         0.61235674377308    5.79086439346351   -0.15153635643804
C         2.21950978867989    6.77959356068768   -1.19368831789578
C         3.58009668257984    7.09282989865582   -1.14567002436252
H         4.00465071292002    7.65614722819087   -1.96170441520085
C         4.35205120629967    6.70001278748159   -0.07302144005499
H         5.40258521584784    6.95339264171868   -0.05048124613848
C         0.15376064671405    7.01593078523519   -2.34655771501346
H        -0.08902259697482    5.94950345338629   -2.39211950308854
H        -0.17256966078144    7.49778958730725   -3.26663929728035
H        -0.35771669977805    7.47445977908856   -1.49473116162089
C         2.06066193684818    7.64453065344434    5.71066160081296
H         2.71849536147618    8.38413897233528    6.17482735357802
H         1.46845701863912    7.15037741080446    6.48198355690823
C         1.08578660736481    8.38509218215235    4.73802583818747
C         0.95613148503897    9.37800712742347    2.58631283196202
C         1.39521902047552    9.14197794967743    1.28146077040280
H         2.23533373564631    8.46126352415308    1.14466365023667
C         0.78881601876100    9.75523270209065    0.20576755334643
H         1.15754741725264    9.58114255404583   -0.79594457425447
C        -0.28876020983187   10.60170917525332    0.41421797332961
H        -0.76717239622311   11.08696239337353   -0.42426009667948
C        -0.73968290319436   10.82992751101800    1.70370641077353
H        -1.57385834201300   11.49678368202881    1.86956878858599
C        -0.12634793905557   10.23258477039082    2.78888117214061
H        -0.47060278260122   10.42856387579283    3.79082711479982
N         6.57456168790593    8.36003138288606    3.26472599589684
N         5.72961170754324    9.41652198461267    1.59570190177070
N         3.58321528534457   10.62926413953452    2.82479644038536
N         2.82332622641376    6.67041132100463    4.98463250189002
N         3.94477467286020    5.75174412309036    3.39893243918742
N         1.67782617531498    8.76492964363716    3.61285427749919
Ni        3.58603842272304    8.73806774254172    3.26091720341636
O         4.83168883975891   10.94804315594519    8.78687805660450
O         3.93842931731795   12.32956932024637    1.31418485899567
O         1.54605405580851    7.22542860793197   -2.28199427970365
O        -0.08727751657175    8.48789964120375    5.06427651112265

