68
CSD_code = NIVXIA | q = 0 | S = 0 | Stoichiometry = C28H35Cl2NOTi | MND = 8
Ti       12.33832595174617   12.44837604613001    2.61207597107401
Cl       11.12628709709665   12.18301649542873    0.81051455189676
Cl       10.69783005224757   12.09793066013527    4.00499426109514
O        12.45079292625111   14.11218993150693    2.63917156853644
N        13.56530397606575   15.55940903434542    6.21094694019615
C        14.57851274247505   12.27106213064004    3.10135781821625
C        13.85767429106064   11.43040595311574    3.99115997172917
C        13.22936303383903   10.41515001980998    3.21194638232220
C        13.54989021483444   10.61874627383584    1.85495637747506
C        14.35983805240811   11.78467721757294    1.78107346107310
C        15.52859746915773   13.37561975235883    3.46596420967753
C        13.86112165068643   11.47453841944480    5.49131799083473
C        13.22352743593426    9.70016448896187    0.71606910946077
C        12.79154491897429   15.38646405848472    2.68988220836182
C        13.10608265560571   15.98977427257079    3.92573556154655
C        13.50485143027808   17.32589525603500    3.94834362582344
C        13.58074071861250   18.05156817321202    2.77818455238930
C        13.26862434055201   17.45321944680054    1.56305503641388
C        12.87823965429481   16.12749505889391    1.49637467963993
C        12.54383275005322   15.43315131286622    0.21207995708408
C        13.01814318982010   15.18678218932909    5.13162129623660
C        13.50232082482180   14.84970702139671    7.39730750862858
C        12.28480281961731   14.55676559225177    8.03437904979912
C        12.32417368111742   13.88208242885029    9.24668334926873
C        13.51970182677345   13.50023677864460    9.82272401554996
C        14.71381766600881   13.82931875649143    9.20735913525294
C        14.72440756233675   14.51249338344506    8.00416112328727
C        10.95565850233107   15.02479195765938    7.48764900892296
C        10.28804767466841   15.98477977988060    8.47773800282574
C        10.03498556905443   13.84377886708675    7.17575828773280
C        16.02974921393582   14.90047356140759    7.34639349137495
C        16.75350939829588   15.93853647659703    8.20748082501192
C        16.93014235678072   13.68865202175207    7.09929087026844
H        12.69247516412140    9.56384934201691    3.61692786341383
H        14.86222560420270   12.14409437951022    0.88921374438680
H        16.51649436383048   12.95760397529564    3.67403828583282
H        15.62743528281450   14.08785379103719    2.64605776384299
H        15.19911139862049   13.91335199777329    4.35378092180464
H        14.07386358279314   12.47455878642941    5.86632127208343
H        12.89540579216619   11.15627550731833    5.88453377118626
H        14.62532153267031   10.79814552306049    5.88180993646544
H        12.31990472494479    9.12923061537444    0.92657142170548
H        13.07431141627044   10.26063662838481   -0.20617167861721
H        14.04638990253985    8.99761400733023    0.56236719413781
H        13.74537178960561   17.76705823173533    4.90270725933426
H        13.88373679909526   19.08705117375571    2.80167517620695
H        13.33243101699112   18.02816376043478    0.65064201236068
H        12.74333582441149   16.07319404700298   -0.64285768011610
H        13.12665460976319   14.50969827209019    0.11950537510836
H        11.48871280505188   15.14888840427218    0.20442894779711
H        12.48464515767055   14.22223052691790    5.02055259809685
H        11.39871131206168   13.64489797679999    9.74928536326695
H        13.52220649319201   12.96083369773402   10.75836244008345
H        15.64704539044439   13.55227252702832    9.67385211547542
H        11.12156805764065   15.57943367332280    6.55841436242490
H        10.95348935019081   16.81456320624085    8.70741398658187
H         9.37184556069390   16.38441710034109    8.04817949520230
H        10.03750076124042   15.47832707416720    9.40637230857046
H         9.82927239025011   13.26409168582886    8.07229081136575
H         9.08941257891387   14.20544388009833    6.77763377103356
H        10.48503414694732   13.18526435129170    6.43599331193555
H        15.79661922695577   15.36537978101193    6.38273111158389
H        16.11752640669783   16.80711842461614    8.36119655058676
H        17.00945152425170   15.52337437194549    9.17953842531072
H        17.67005386599629   16.26067836586867    7.71756704469948
H        17.25117923321293   13.24607407974433    8.03889668078233
H        16.40780693689302   12.92737802646445    6.52471290256916
H        17.81710834907448   13.99129999077223    6.54630493443387

