58
CSD_code = NIVXEW | q = 0 | S = 0 | Stoichiometry = C22H31Cl2NOTi | MND = 8
Ti       10.54474683421362    9.64969819603067   14.92273997841296
Cl       11.12301644025632    9.31998451189831   17.01549317162823
Cl       11.03849631470401   11.77953553013185   14.91402697800095
O        11.88679517667064    8.99054923344972   14.17067692549734
N        12.71536404114472   10.59316661891639   10.57603388436121
C         9.17624971054277    8.20966020773636   13.77244057959485
C         8.82708590228194    8.15997068250011   15.15212161373789
C         8.35027672314796    9.45083896721639   15.53417997119921
C         8.39872115987469   10.29490044008805   14.39642041510524
C         8.93008835046614    9.53540266647634   13.30942720756919
C         9.56349922378724    7.04969610781320   12.89948358022941
C         8.80019328581052    6.94428991728040   16.03283188116475
C         7.77667119796585    9.79492953147205   16.87836590155085
C         7.83203216731416   11.68095587278826   14.28551914529857
C         9.00600190271549    9.98633167416786   11.88000119760754
C        12.62129219084521    8.26570327948465   13.34582838208347
C        13.04380852826330    6.97915064343332   13.72977964711602
C        13.76118595988348    6.21706138884698   12.82298862801887
C        14.06970616114798    6.70088077889410   11.55863616932375
C        13.67385044830443    7.96962131899610   11.18782747914196
C        12.95270556902038    8.77052821442600   12.06999261806165
C        12.72280699601476    6.48743790189935   15.10992005476767
C        12.55499157540799   10.13239575876492   11.73816228142331
C        12.38894934918715   11.94144666559358   10.18722579981814
C        11.86901318589437   12.86097632298798   11.29782710356660
C        13.68492018748704   12.52269551251648    9.60261147002469
C        11.34046249023006   11.82184659480337    9.07151885939115
H        10.10731965510634    6.28984390431066   13.45874268170435
H         8.66542066671455    6.58702477617861   12.48233326356148
H        10.19029120268342    7.37540539762253   12.06945437356389
H         7.76904138498192    6.70371487293373   16.29925372874085
H         9.22949238845588    6.08335189462206   15.52428328355003
H         9.35579833696709    7.11938103576110   16.95586200319013
H         8.23714172233326    9.18885131561458   17.65732438601695
H         7.94426399155819   10.84494920497227   17.11957695893498
H         6.69969108889178    9.60831406542910   16.88762530655997
H         6.89876841518339   11.65356954885508   13.71791923487111
H         7.62173815012318   12.09371549165378   15.27005699896347
H         8.52388037116201   12.35367746504771   13.77796426984376
H         9.90908308062279    9.61638189790861   11.39188124977963
H         8.14399907757820    9.60853205746910   11.32405343716884
H         8.99567588597775   11.07330497795497   11.82076473099004
H        14.08457027412155    5.22759542352822   13.11292619130552
H        14.62825984069853    6.08417719925366   10.87110712535196
H        13.91243786128778    8.37766198774533   10.21873931742154
H        11.80555271350022    6.95598476945560   15.48207036529879
H        12.61575833698955    5.40494847259293   15.12254136643761
H        13.52909026701030    6.75716560892752   15.79445090141455
H        12.12935833830978   10.69860244013130   12.58457634034696
H        11.66792245625496   13.84567248009508   10.88374651984605
H        10.94821150133969   12.47762360637071   11.73351411389677
H        12.60561164310602   12.96680505776086   12.09157428303558
H        14.06766215270332   11.86363122940227    8.82828253291473
H        13.49919119865979   13.50491942659633    9.17605681641009
H        14.43813960486306   12.61351102783676   10.38171590996724
H        11.69840098478914   11.14313447777641    8.30212351371483
H        10.40661004987463   11.43131522013793    9.46948813593687
H        11.15288628562467   12.79577912742725    8.62710973553085

