80
CSD_code = NIVYAT | q = 0 | S = 0 | Stoichiometry = C32H45NOTi | MND = 8
Ti        6.97265170049388    7.25789867252229    9.97579230386231
O         6.35661219047120    5.85270687067652   10.71787692465931
N         2.35374439061833    5.87039366786512   11.40858069054255
C         7.93683062657660    9.36333538154035   10.09908240911285
C         8.21060986173622    8.72075184498372   11.33815469793745
C         6.97078106699308    8.48560622557146   11.99393936227532
C         5.93429961183428    8.98441487007952   11.16417233893258
C         6.52932771375021    9.53054251692109    9.99180123283409
C         8.95099292549459    9.97091728207270    9.17044577668374
C         9.57297931830399    8.54709828622298   11.94967979901014
C         6.79322039995429    7.97495463772696   13.39690879684022
C         4.48188225718196    9.08123643566681   11.53361093214746
C         5.83188753028725   10.39043875975046    8.97506720194843
C         8.69140570881142    6.44914742720671    9.13212543733544
C         5.93276204898396    7.18262176664590    8.18209465764918
C         5.90291500239346    5.17952382349044   11.74985220197216
C         6.80335749657174    4.48974986974198   12.59147636681328
C         6.32016069610753    3.81854264304892   13.69810574229053
C         4.96242128054976    3.80241772251798   13.99844531763196
C         4.07226453721926    4.45432973243492   13.17502448166561
C         4.51962032682118    5.14294374156423   12.04556940453709
C         8.26067385990285    4.51534142536327   12.24045185045791
C         3.59225972287969    5.80069279184717   11.14864226605519
C         1.40104022359418    6.39397791924612   10.55650258387378
C         0.59148617632280    7.43436295342733   11.04463342445074
C        -0.42254435937481    7.93338310038133   10.24738772267380
C        -0.65397471567692    7.41251029677274    8.98664761087788
C         0.11809352921541    6.36367385613771    8.52846449034623
C         1.15003451202884    5.83498221040763    9.29149610840241
C         0.82266928809399    7.97428508136669   12.43775182146499
C        -0.27498516975141    7.45572580581099   13.37042324853305
C         0.87922858547278    9.50189454400596   12.47132164373811
C         1.91494661419978    4.63644867564916    8.77557175841853
C         0.96680000598005    3.45261836737479    8.56361350684760
C         2.66232031318679    4.96891616427176    7.48268619625711
H         9.91594451416166    9.47414448598408    9.25773182315679
H         9.09395934281349   11.02770949905590    9.41219444271456
H         8.62325237344057    9.90713630631997    8.13206689422939
H         9.59131434200309    7.72588475676779   12.66595304962419
H         9.85676809287897    9.45803238626851   12.48384415161133
H        10.33102938632270    8.35901566695377   11.19007251740586
H         5.86812449105480    7.40678330045848   13.50274903314006
H         6.75159158729126    8.81443061236853   14.09642553268752
H         7.61975679163187    7.33220341317096   13.69791573177988
H         3.83894214140174    8.98063126545173   10.65794728807624
H         4.27605208677885   10.05305845221784   11.99086403605838
H         4.20395697957649    8.31002659073366   12.25152129188520
H         6.31025970907708   10.32198011795939    7.99857380932945
H         5.86705390836493   11.43664254074402    9.29207513461562
H         4.78474897440146   10.11115737257993    8.86721924958573
H         9.52613916290790    6.39615667290134    9.84043917243268
H         8.51607196341131    5.43041319271263    8.75975584028764
H         9.02261646248928    7.05392890856906    8.27857201289278
H         4.92115311057252    7.59658867475126    8.27588607547969
H         6.45165519730250    7.75904086992884    7.40555380419972
H         5.83894342731581    6.15147393700368    7.81442058183479
H         7.01560918571814    3.29788793903270   14.34148364886554
H         4.61160612502413    3.27347513866910   14.87138743426407
H         3.01187643973959    4.44990223234042   13.37420516026617
H         8.86451205637425    4.11501040726317   13.05121647609627
H         8.43686273636174    3.91901775656399   11.34252277057117
H         8.57347698613314    5.54040808763251   12.01823510073823
H         4.04615001195663    6.24110511056315   10.24283504816239
H        -1.04484311724450    8.73650446970197   10.61203376433233
H        -1.44405274393492    7.81476554883331    8.36956553311274
H        -0.08418679693607    5.94831190422271    7.55227659383582
H         1.78096840980594    7.58422325529984   12.79427969663212
H        -1.25220007119849    7.79765326455852   13.03646371970953
H        -0.27532712058757    6.36847719420673   13.37838593604230
H        -0.11020255019013    7.81246805865896   14.38515868408845
H         1.20484982460733    9.84079407545778   13.45272579516867
H         1.57721337088538    9.87707076603525   11.72678417047165
H        -0.09872587103503    9.93377177151977   12.27415289763742
H         2.65437776393734    4.33236102827854    9.52337043808813
H         0.43746500154690    3.22491097240074    9.48636326552346
H         1.53019738997572    2.57214219084686    8.26115341001559
H         0.23288920536975    3.67152996401998    7.79202073839845
H         1.96739342119001    5.23303885376841    6.68900981074930
H         3.24569079209984    4.11006569760501    7.15640200995299
H         3.33929022797039    5.80597991932586    7.63778611516316

