124
CSD_code = NIWBUT | q = 0 | S = 0 | Stoichiometry = C57H63N3Zr | MND = 5
Zr        2.60735459963725   11.05940035309114    5.28233640618726
C         6.67824927672580   10.65977750073239    7.10678144777177
H         6.55518024724648   11.14690357063643    8.07039842322548
H         7.66289715646908   10.90985920641189    6.71934454852708
H         6.62596755190561    9.58796138289374    7.26989328657184
C         5.58409022555326   11.14994586744074    6.14882512667414
C         5.65479456168464   10.48903133825644    4.77764939770860
C         6.72597232247091    9.79532303222068    4.22629361171371
H         7.63929852621778    9.65027083012981    4.77947105310516
C         6.59263631673402    9.29504345288554    2.93945777316266
H         7.40594031932266    8.74582818183262    2.48786900849930
C         5.41903713063144    9.50075663900990    2.22996693123719
H         5.31721149094142    9.12749049002132    1.22495092282064
C         4.38211931005419   10.18778030785396    2.85179759172036
C         3.00547928626769   10.49475250734377    2.27160793874366
C         2.70300890101204    9.62870411495235    1.04457680233876
H         2.78835180484079    8.57286004230805    1.28022857495888
H         3.39175171662100    9.86717081732087    0.23812220225024
H         1.68752201312959    9.81736936798501    0.70511497121942
N         4.22208602696764   11.00178323570993    6.65480374387825
N         4.52627579274737   10.65792384909986    4.08906915065206
N         2.04038890911491   10.37111844044730    3.36085464007191
C         4.06876894229205   10.29381459028325    7.85916516144499
C         4.17458754701090    8.88207084496987    7.90477160501838
C         4.04623569472218    8.22053752056135    9.11513825883128
H         4.14001262482245    7.14679053452601    9.16042966909037
C         3.78851075137563    8.91377508902893   10.28517878827154
H         3.69063437735318    8.38094315918410   11.21929789259777
C         3.64367422144626   10.28558345817013   10.24412082792146
H         3.42131294348330   10.83060768681863   11.15119337639194
C         3.78822297907043   10.98443514824706    9.05420711271985
C         4.36878392669800    8.13040124835686    6.60750483620968
H         5.40417834255454    8.22931196732655    6.26262076951609
H         3.72703223527605    8.62510226704070    5.85188067304367
C         4.03744108831699    6.64267086102123    6.67196148949292
H         4.11105134068930    6.20441761292205    5.67910481419806
H         3.02858250783914    6.48661375206851    7.04746123849036
H         4.73519479718218    6.11425267219874    7.31788920263025
C         3.65055823520035   12.48398000541469    9.07645644754190
H         2.75664194160199   12.75694628308124    9.64224157784688
H         3.52692333863257   12.83746046141114    8.05130679714360
C         4.85929395002170   13.15942319900804    9.72703782033689
H         5.77385251555507   12.92025627088780    9.18849080530479
H         4.97904574758534   12.82376960982774   10.75497044053124
H         4.73280793304128   14.24044975483128    9.73048014321224
C         0.89997188337869    9.57776589959266    3.11737573365337
C        -0.32006983330236   10.17298016288200    2.73660790065773
C        -1.45133754231592    9.39305545503118    2.54663902111376
H        -2.37936873622946    9.87305270765393    2.26853468229268
C        -1.41041863846841    8.02311828764175    2.71489811374201
H        -2.29786033160606    7.42584259580413    2.56740897535921
C        -0.22118434051622    7.42617990611549    3.08791903344318
H        -0.19165500598653    6.35726732705366    3.24219226835550
C         0.92993736082822    8.17491457639755    3.28067272074965
C        -0.42413047084780   11.66051436469110    2.53951773052689
H         0.47857056998635   12.13179871887142    2.94004537741778
H        -1.28184962785199   12.04257166246647    3.09836191578518
C        -0.61356747974117   12.03735127575369    1.06920655967916
H         0.16936561343007   11.60650806097593    0.44817112650933
H        -0.58767806818035   13.11913560535728    0.95690681329550
H        -1.56897434082952   11.67201566246282    0.69832129022139
C         2.18771875670333    7.47843225566206    3.74047841515608
H         3.01431239522500    8.19879486039740    3.73965086383374
H         2.03355313666550    7.14058116038526    4.77033146737659
C         2.57377665753506    6.26452978477650    2.89304914516692
H         2.61969064844864    6.51780481843068    1.83587587080560
H         1.85445184806044    5.45853687375539    3.01109039498292
H         3.55058125357975    5.89094424992778    3.19611282445204
C         5.82267685028476   12.68916135149884    5.88574331867217
H         5.17836702715301   12.97392986470024    5.04463725800644
H         5.47900088357299   13.21265811559226    6.77881808406351
C         7.24846299552204   13.06625908691203    5.61936918241966
C         7.86315545683627   12.79872682904543    4.40000123197282
H         7.30436818742640   12.32225226094370    3.60940067605166
C         9.18807395791051   13.13238794878302    4.18412785998021
H         9.64630691966699   12.91366741613356    3.23020418780582
C         9.92595225493290   13.74515547837859    5.18221371435343
H        10.95985708814775   14.00614584928129    5.01258717747426
C         9.32515410596217   14.02533990486582    6.39757472452497
H         9.88993058907347   14.50890034571863    7.18108788888408
C         8.00114512845055   13.68863460627833    6.61166620516657
H         7.54236943409069   13.91523007780973    7.56346549421900
C         3.06103569571239   12.00432938271211    1.81795370973135
H         2.13282733138744   12.22469800814495    1.29320122590123
H         3.09641111856732   12.60143289370247    2.73733093410181
C         4.22840770437928   12.34224913619821    0.94740281844900
C         4.16164729118037   12.23081868663260   -0.43769050477570
H         3.23246972683097   11.94037740338224   -0.90698417821889
C         5.26525644729041   12.51005396153317   -1.22449342593408
H         5.19561123336993   12.41831324572762   -2.29877718570973
C         6.45338759740686   12.91525739098037   -0.64099698494016
H         7.31364125768867   13.13444182176842   -1.25586365602278
C         6.52486136353055   13.05812235374821    0.73473573917731
H         7.43947537958025   13.40058174544700    1.19720381140027
C         5.42085787037728   12.77555527263226    1.51660166242121
H         5.46791336066855   12.90993459144495    2.58823523605507
C         1.17185845070668    9.71850761643177    6.43217952563202
H         0.65462192921921    9.02498361265847    5.75726363371998
H         1.62716819039885    9.17308391781104    7.26833583524011
C         0.27370893920107   10.76555389459996    6.90593165215235
C         0.42816168576555   11.35355616415003    8.17490825232187
H         1.19419476985638   10.96848425367888    8.83614425120166
C        -0.39225487694419   12.38274858476899    8.59122519933632
H        -0.25215543547697   12.81727947225759    9.57172072440856
C        -1.40763324109537   12.85317793992371    7.77150633296422
H        -2.04904289198184   13.65666538195885    8.10129041698832
C        -1.60443108531862   12.26050456582240    6.53222795873026
H        -2.41765203279780   12.59617188429282    5.90236410475849
C        -0.78425358346380   11.23601784407412    6.10449449230451
H        -0.96653585717495   10.75535064857450    5.15051530520064
C         2.17922012016447   13.27944243060309    5.65716488645108
H         1.37206473048748   13.28872923020289    6.40539824968840
H         3.09567709851916   13.68450424571345    6.11049916975652
C         1.81279225874175   14.10033642802536    4.50639636706781
C         0.47040335339622   14.32531077371089    4.15976824315878
H        -0.30319839156127   13.89855821390504    4.78537852127105
C         0.12982859750061   15.08699220186339    3.06109252983400
H        -0.91313455193571   15.24804234997512    2.82470581407796
C         1.11211976036431   15.65931248387211    2.26629024302558
H         0.84340400624738   16.25314178122819    1.40520559696390
C         2.44359582808105   15.48404839322087    2.60818222964534
H         3.21925740903132   15.94646310369056    2.01320378103771
C         2.78780358367415   14.73116665253863    3.71277457472177
H         3.83488980337449   14.63928610260752    3.98558435770025

