25
CSD_code = NIWBOL | q = 1 | S = 0 | Stoichiometry = C10H10AuN2S2(1+) | MND = 2
Au        7.52169569040987    8.14618572364976   -0.00149124600852
S         5.67791186685751    7.64435403590501    1.36058309140055
C         4.43421183807588    7.09604323729674    0.36223925374882
C         4.52049611019165    6.97878483959087   -1.04768908985299
H         5.43779551904780    7.25474843696204   -1.54717464885391
C         3.45909746338550    6.52311673587107   -1.76694112330721
H         3.49736155976182    6.42393663529226   -2.84081635755493
N         2.30580003333512    6.17414709265104   -1.15756183682711
H         1.52951463853242    5.83694810785894   -1.71274260008219
C         2.17345331633145    6.26878411528512    0.18583577282070
H         1.22513819128894    5.97393579969374    0.60716424264864
C         3.19979280126283    6.71753627362353    0.95469915796307
H         3.09370544548574    6.79211566146887    2.02447769444167
S         9.36725871977728    8.64446054948101   -1.35968844358684
C        10.61081328783893    9.19383444977236   -0.36200623912327
C        10.52467197092761    9.31116141239181    1.04788416182112
H         9.60745299460714    9.03513189922611    1.54745306355400
C        11.58604804512606    9.76697208849235    1.76700324503290
H        11.54784282339658    9.86618929513492    2.84087895951769
N        12.73928100619128   10.11594054785261    1.15751845352206
H        13.51558989499897   10.45317460494229    1.71263715576515
C        12.87151515707659   10.02126117654251   -0.18589594751766
H        13.81980362840306   10.31607766845762   -0.60730314854457
C        11.84511451404765    9.57243453889289   -0.95464229114031
H        11.95113348364233    9.49772507366453   -2.02442127983710

