124
CSD_code = NIWCEE | q = 0 | S = 0 | Stoichiometry = C57H63HfN3 | MND = 5
Hf        2.72467361034847   11.08947570456651    5.23310716960220
C         6.76753285971937   10.55178116288572    7.10905470838101
H         6.66394457968898   11.07075663679600    8.05795874051740
H         7.77261269280346   10.72381299081543    6.73164539024312
H         6.63950033551084    9.49076491451224    7.29769262460545
C         5.72775369318930   11.09229300100622    6.12088007996631
C         5.78161900808294   10.39993918170365    4.76693736397920
C         6.80035564228105    9.60550495735326    4.25412583583751
H         7.69014973562977    9.40118419721071    4.82638101006168
C         6.64229510799205    9.08068970389717    2.98005803585308
H         7.41588369820021    8.45682118512304    2.55639638630477
C         5.49367531519395    9.34699099613251    2.24856033321940
H         5.36948760587541    8.93944958299630    1.25957515805952
C         4.51145475074680   10.13796510628038    2.83145887736829
C         3.14856001372217   10.50619746795263    2.25863559089795
C         2.82798928777795    9.70885353870913    0.99389608347052
H         2.84474363952869    8.64219584039334    1.19135302734831
H         3.55015076131631    9.93751180518558    0.21409260508588
H         1.83341767794793    9.96853438516017    0.64029279233781
N         4.34831219514187   11.03906373060821    6.60593112010165
N         4.69079111029291   10.64493321600478    4.04762012024028
N         2.18024432726922   10.33608242263649    3.34183440886952
C         4.12906762081759   10.38481611798398    7.83215749645885
C         4.11988423432948    8.97306396747717    7.91993081102344
C         3.89735282325637    8.36365703651641    9.14381486620822
H         3.89992100210108    7.28815507942147    9.22457570648738
C         3.65557338415441    9.11385714075656   10.28166258460319
H         3.47914341834388    8.62087677712858   11.22605212559334
C         3.62799310090056   10.49062401282427   10.19662692460639
H         3.42051963023053   11.08042804908251   11.07862145085738
C         3.87210609149533   11.13630106706989    8.99306192013207
C         4.29503881394796    8.16958250505278    6.65262510325438
H         5.33087452131698    8.23657292389011    6.30483483378811
H         3.66798174495157    8.64660458576941    5.87557053781875
C         3.93440871724211    6.69269096159496    6.76612983819575
H         4.03010968232789    6.21451381725161    5.79361883706408
H         2.91214202860179    6.56821202414373    7.11571960528168
H         4.60408183178759    6.17977810097638    7.45297867862825
C         3.86903581167193   12.64179812707412    8.96708595641313
H         3.83856591268736   12.97549743603556    7.92971191471953
H         2.97404930995190   13.01130172278588    9.47426490413431
C         5.09711099081271   13.22621875489583    9.66724161503409
H         6.01294443964207   12.89148987419115    9.18466508040942
H         5.13283302892591   12.91166715226621   10.70794053978942
H         5.06805110088663   14.31375580980805    9.63669155810433
C         1.03253591282147    9.55953034053454    3.07025472131512
C        -0.18160102649823   10.18072589329195    2.72245972495001
C        -1.31653368398709    9.41587710884581    2.49520239077797
H        -2.24214682670863    9.91351402786149    2.24166093460375
C        -1.28297739187974    8.03968610851642    2.60138511856930
H        -2.17336043656815    7.45420109466528    2.42600146821619
C        -0.09969116422398    7.42056599052504    2.95592295665456
H        -0.07766069712513    6.34642758062897    3.07053848575009
C         1.05507178695011    8.15388548690095    3.18311566524729
C        -0.28448806420224   11.67573906653886    2.61474687994427
H         0.62539482254404   12.12312770680090    3.02184321149312
H        -1.12377917797033   12.02309052411628    3.22104268866519
C        -0.50421456009184   12.14399788326190    1.17588456207057
H         0.28436070256878   11.78079953655900    0.51941110802928
H        -0.51247301136790   13.23109916905420    1.13887297576343
H        -1.45263550911494   11.77550442020537    0.79098431664638
C         2.30067325754053    7.43111674302216    3.63107506936943
H         3.12676399153417    8.14610589221997    3.69015240699840
H         2.12012456713965    7.03973377145684    4.63650719753100
C         2.71064920425458    6.26363102553468    2.73277605122069
H         2.82719987601568    6.58075058186829    1.69857774138911
H         1.96842008681404    5.47024802057859    2.75663311858944
H         3.65932261113301    5.84912598861248    3.07017987147134
C         6.07154857841806   12.60380270721992    5.83720889631252
H         5.45365721116126   12.92363907847277    4.99249463457844
H         5.76490539835656   13.16470010438743    6.71963699939586
C         7.52014296635201   12.87393004435378    5.56402891337313
C         8.11002252216543   12.54897276075446    4.34650217244836
H         7.51708627435707   12.10386063107327    3.56235309678890
C         9.45433576218715   12.78651186737393    4.12300903391613
H         9.89242451381549   12.52490477472256    3.17037858995199
C        10.23670803952645   13.35796508619236    5.11159908333130
H        11.28579624182001   13.54385002076917    4.93604924596037
C         9.66140248784607   13.69390191564165    6.32517483022310
H        10.26152875729682   14.14586322342041    7.10130509405242
C         8.31775154571954   13.45356723255537    6.54671911087328
H         7.87871811264227   13.72268744108830    7.49678397146089
C         3.22537018203911   12.03358214977514    1.89373681587152
H         2.28672892921906   12.30693207890444    1.41463382856693
H         3.30356693667702   12.57230797960638    2.84491625756359
C         4.37459578330499   12.39119411923392    1.00535549709118
C         4.26484478211444   12.33702832809872   -0.38050426389605
H         3.31727163446073   12.08011867468701   -0.83189709486206
C         5.34951571640913   12.62849049908643   -1.18858717617245
H         5.24647833185813   12.58060742206048   -2.26301925489870
C         6.56196706740418   12.98919196715315   -0.62584393140000
H         7.40795786519925   13.21665500307216   -1.25726070654212
C         6.67640086708779   13.07626034910876    0.75128904558836
H         7.61024884001435   13.38290537556216    1.20032139085929
C         5.59042129489379   12.78211807211231    1.55448684784072
H         5.67545240514415   12.87325447134722    2.62778892551149
C         1.19976128372991    9.90511920553758    6.38968933513366
H         0.78112551744990    9.08512665188833    5.79489040109594
H         1.66212939722328    9.50142673224966    7.29738469791871
C         0.14942466050249   10.86471629088866    6.74955807613123
C         0.29302925019994   11.69610601142494    7.87111184169849
H         1.18123470739316   11.59481948205662    8.48234696846798
C        -0.68462661460721   12.60751413107948    8.21621601236743
H        -0.55083665723956   13.23610866551142    9.08581713683805
C        -1.84267904964888   12.71570285163729    7.46077866194731
H        -2.60700092815786   13.42849319538389    7.73239690228981
C        -2.01320608615331   11.88752774153976    6.36228604114082
H        -2.92138352608793   11.94983172442001    5.77874250302101
C        -1.03781742595078   10.97348358154338    6.01387798262612
H        -1.19345781051764   10.31457552387956    5.17089609875843
C         2.39548177780344   13.31745995728612    5.53403443558549
H         1.85977909409331   13.34899256543615    6.49274652554808
H         3.38558125093651   13.77180012997543    5.67447522007924
C         1.64834664662470   14.10376209197702    4.54093875579162
C         0.25164689631497   14.20534809539730    4.59842018924704
H        -0.27670193102512   13.69648931243556    5.39218809032326
C        -0.45210468657348   14.94190786651334    3.66798087501530
H        -1.52879464052869   15.00534884708937    3.74090920822466
C         0.21087463683009   15.60665537820134    2.64752200315745
H        -0.34150906284957   16.18261300575539    1.91935502943238
C         1.59325091082957   15.54314964921364    2.58759539082782
H         2.12591063470986   16.07530838762148    1.81151798969310
C         2.30046199887857   14.81751994077583    3.52554561393749
H         3.38323855009681   14.81574087192668    3.48191914369671

