139
CSD_code = NIWCII | q = 0 | S = 0 | Stoichiometry = C59H74N4OZr | MND = 5
Zr        1.61325623475416    6.91111114094631   16.13111144793653
C         2.96733159123031    7.48259117729100   11.84938837588284
H         2.09491867905832    8.01460254099122   11.48958016675772
H         3.26532369809614    6.75526977723078   11.09785804696569
H         3.77207582652611    8.20166882210841   11.97996395743448
C         2.67177399790911    6.78439210806778   13.18059067752154
C         1.43466512856396    5.90180977257570   13.10531833042706
C         0.88758562905480    5.31687227434195   11.97012338891013
H         1.26654129830209    5.54436284945608   10.98770421915707
C        -0.15791122546231    4.41973077041083   12.13421403686470
H        -0.60626711164908    3.95000847134347   11.27110239621378
C        -0.61104709362456    4.10660928968591   13.40618982069659
H        -1.40194805051949    3.38826118340835   13.54512406385986
C        -0.02324963112088    4.74520842056271   14.49271408335642
C        -0.39009062480374    4.56749755734781   15.95856302859325
C        -0.84490891950213    3.13199421019982   16.26354453504295
H        -0.16048216191370    2.38921650120316   15.86890245970079
H        -1.82430417622274    2.95797343098749   15.82476438841092
H        -0.91359759332825    2.99647298179617   17.34050986658978
N         2.54763416280695    7.66430331451586   14.33087646024691
N         0.95163330015776    5.63189665673509   14.31616755178481
N         0.70834882655851    5.07944518155443   16.76482058048984
C         2.71346862549550    9.04622674583356   14.11801505457705
C         1.70059593806440    9.86937320542165   13.56947202789795
C         1.89437398302740   11.24099210608523   13.48551253995220
H         1.09695240125688   11.86283672567043   13.10436845459397
C         3.07781895643148   11.83278063533974   13.88145863312910
H         3.20571607769345   12.90257080393039   13.80803713454160
C         4.09634352117806   11.03354330690622   14.36218826930326
H         5.03838972508172   11.47964691893381   14.65277403765721
C         3.93314780964012    9.66231152653044   14.47628791640608
C         0.37663800671308    9.31942648646926   13.08993359468798
H        -0.41831054406398    9.70556656825458   13.73517752352074
H         0.38411294154544    8.22814252174387   13.17382080903687
C         0.02323515470838    9.72617960740116   11.65589522704998
H         0.83754024937182    9.52235353975292   10.96416012472450
H        -0.19826389591812   10.78866656238761   11.59855798775181
H        -0.85747157859207    9.18025328885122   11.32144435044791
C         5.09187101351477    8.83405697276813   14.96252717365796
H         4.70309145390323    7.85866595141358   15.26492861779969
H         5.54070639533511    9.30327000305641   15.83911279890907
C         6.18079896311945    8.69570560003440   13.89582392249786
H         5.78629712235040    8.26004298627737   12.98044817799141
H         6.99228111072554    8.06540410715550   14.25705680693252
H         6.59205676999769    9.67175832957640   13.64546570296654
C         1.26030689153134    4.25242606970286   17.74995816502996
C         1.00911466075003    4.56406263562050   19.10685042128126
C         1.49557086564671    3.73850012711788   20.10557803245748
H         1.29199947113994    3.96019535997526   21.14132937495811
C         2.23442711283402    2.60909930285156   19.79610124744380
H         2.58865620988485    1.96073018729959   20.58409425430758
C         2.52863418935660    2.32318213322485   18.47779456225301
H         3.12483598669741    1.45269221714131   18.24836453618376
C         2.06868058776614    3.13239892660740   17.44904647168487
C         0.20822772296202    5.80801143286547   19.39940856399144
H        -0.81107232500302    5.66965415466696   19.02596026177045
H         0.64940525194564    6.62896504960510   18.81035899393640
C         0.13697297599858    6.20781387163602   20.86823641588269
H        -0.40439559820532    7.14654530864567   20.95725485645197
H         1.13278627974508    6.34456197086296   21.28431459999028
H        -0.38852398695022    5.45746071618340   21.45583223692842
C         2.46339586171850    2.84130099097602   16.01970765863694
H         2.36985960221912    3.78219743101548   15.46008537843833
H         1.76918875359536    2.12497613857457   15.56808670731185
C         3.87273700613872    2.27427681182841   15.85024279299826
H         4.16674984835392    2.31303043733410   14.80257106745557
H         3.91500939546172    1.23555743603314   16.16879669615934
H         4.59436495931374    2.83989471949579   16.43156429764850
C         3.84845809621883    5.75512465256328   13.46869365616594
H         4.76139488983688    6.34211990853476   13.55825936052217
H         3.62507986583751    5.29147432599662   14.43702090353876
C         4.03419500487809    4.71074968307913   12.41490238374390
C         3.26695765343722    3.54878627285481   12.39956818559508
H         2.54475489744395    3.37167270688006   13.18257143864013
C         3.42219564407154    2.60773871892339   11.39817055751774
H         2.81755792071217    1.71232113136587   11.40712153191207
C         4.34973188079261    2.80740163493401   10.38982216325806
H         4.46970136124820    2.07308610958352    9.60737154196488
C         5.13008533936956    3.95099431568216   10.39941678109943
H         5.86518035329972    4.11033716324296    9.62397858695861
C         4.97428291890707    4.88992744528781   11.40280597469576
H         5.59741437900703    5.77321761214784   11.40600844864783
C        -1.64070945543935    5.49683215205324   16.22649847215920
H        -2.08023813740411    5.17585315322682   17.17217642405991
H        -1.22958717515603    6.49923127116203   16.35218727356650
C        -2.67889438989203    5.48516435867965   15.15168487724577
C        -2.53836693035964    6.29648467315078   14.02759602269937
H        -1.68641023461136    6.96076555740705   13.95634554855900
C        -3.47246642418054    6.26967026553765   13.00963276937463
H        -3.34665032586533    6.90752603672314   12.14655960050543
C        -4.57075429880950    5.42966403194535   13.09550609556746
H        -5.30064444912177    5.40638735630212   12.30006267657912
C        -4.73306909041404    4.63094242355152   14.21400150080921
H        -5.59489004211017    3.98450061275591   14.29552869774829
C        -3.79708888292520    4.66177366799168   15.23322426088848
H        -3.94464133214877    4.04768010861375   16.11061505605090
C         0.03604062418164    8.57990539739351   16.32894886103065
H         0.68643776240452    9.46034462396730   16.19118902133487
H        -0.62980629423995    8.50517765482990   15.45699152069522
C        -0.78679110055371    8.74968270755329   17.53532101708436
C        -2.16685943548894    8.49003462417491   17.53214296724565
H        -2.65544382679385    8.18741789665905   16.61364885184249
C        -2.93640041067923    8.64473357343676   18.66869334146181
H        -3.99547457865041    8.42952400115471   18.62741673492471
C        -2.36869827021771    9.09610350540826   19.84768720250203
H        -2.97248152001386    9.22531104646574   20.73391205783338
C        -1.01618714147815    9.40298967107091   19.86448454967503
H        -0.56375637008742    9.78895519384205   20.76829998943811
C        -0.24282500243892    9.23244545904745   18.73487704185240
H         0.80548905808099    9.48733167681949   18.76774375001956
O         2.63892952544654    7.31551832114860   17.67360930175261
N         3.99355741611088    7.73177210752853   17.81611916824246
C         4.81578141279594    6.57800948371526   18.23787199143159
C         6.26711492979782    7.03628508730103   18.44741734334740
H         6.85342186545317    6.18432960345973   18.79691913824771
H         6.67502984796344    7.35922339758717   17.48717175928718
C         6.37170436563251    8.19431164787570   19.42936489103479
H         6.05256432000158    7.88379670651283   20.42446060790260
H         7.41157926220491    8.51907568502437   19.51044918985863
C         5.51369098755752    9.34302391163497   18.91936816496720
H         5.94839152009312    9.70103510444227   17.98416259932855
H         5.52278755421111   10.17257348082700   19.62883571442362
C         4.05005505643709    8.94342457063618   18.66711205961256
C         4.28776849514259    5.83042215510178   19.47446156953375
H         4.53884707777146    6.33460064104783   20.40077381578155
H         4.71004102042363    4.82880253682252   19.51328461723740
H         3.20680409095637    5.74006810031416   19.40012792225788
C         4.78430352145155    5.58929038773675   17.06011409052020
H         3.73888658247565    5.32411469739689   16.85039634538686
H         5.34278945910323    4.69313874837002   17.32066583555772
H         5.24262392116057    6.03442924942359   16.17864660817137
C         3.29925139599500    8.79379968550063   20.00413526725216
H         2.40022351345232    8.20225210364370   19.84835647174711
H         3.01314952448032    9.77160754338475   20.38489672640239
H         3.90951470587645    8.31059559023998   20.76028844520259
C         3.38477221826308   10.06775868319663   17.85327200931034
H         4.01765978617592   10.38020188495160   17.02934964490952
H         3.18855695253463   10.93351305540932   18.48119971426881
H         2.44997343180404    9.70133508611848   17.43084492794653

