47
CSD_code = NIWFUW | q = 0 | S = 0 | Stoichiometry = C14H29MnOP2 | MND = 8
C         7.68415469427114    1.44801819740795    6.65751220357524
C         8.15820926384972    2.70446409893923    6.74457438991469
C         7.48936072516389    3.87531325576492    7.29055131175901
C         6.53055274958732    3.93840595498980    8.31873128172643
C         5.78581992502899    2.80723205267803    8.71328327593112
C         9.53001498648026    2.99548036776825    6.18384703857543
H         9.94953284864587    2.12550297224744    5.68032106727315
H        10.20137104262434    3.27459033479585    6.99845274089426
H         9.50677765433085    3.82861972060009    5.48007227244407
C         6.26419912973063    5.27845687505641    8.96498065219609
H         6.49380908318190    6.10638053145449    8.29545748427762
H         6.89306079330043    5.37029301196648    9.85394082791755
H         5.22403678027218    5.36137491049357    9.27515863227181
C         4.32230843819999    4.38775744147477    6.65819971232504
C         3.87123795804743    0.32170552146070    7.78418573235827
H         4.79118379619447   -0.20099188485566    8.04128830372600
H         3.10792322049722   -0.40830979401511    7.51524385926395
H         3.54135015943383    0.89881428398914    8.64557208098328
C         4.45317501549017    0.23100735025539    5.05837618317117
H         4.43661461645230    0.72857066553720    4.09039190939125
H         3.68432715440296   -0.54050781882644    5.08661593328196
H         5.43084107698404   -0.22769332120441    5.19888999628356
C         2.41529553424976    1.91560366814799    6.02634962691146
H         2.37900385615092    2.54029424868722    5.13601520087767
H         2.03938566009940    2.49733303387683    6.86644390307686
H         1.81002066015963    1.02022557814774    5.88738091298393
C         7.08540362245210    2.69922408134493    3.40377820693144
H         6.66396025411266    1.69969260876005    3.30980783742923
H         8.08248225281386    2.61621114507031    3.82897962328914
H         7.14716056766347    3.16375961689884    2.41970630230507
C         6.76340104872299    5.36307174714260    4.25395048833135
H         7.76489969290605    5.39067892493493    4.67765659304288
H         6.14172203588159    6.09081390805820    4.77468611562322
H         6.81155463132738    5.60516128607114    3.19215555064530
C         4.55889379304336    3.91198169987552    3.40688167551715
H         4.04924177405504    2.95726545773169    3.28930785642002
H         4.86481361166448    4.28795551040352    2.43065116896739
H         3.87634793281889    4.61677016409552    3.88044210581400
Mn        5.58766481574735    3.17184537312262    6.63423884394645
O         3.49368197238961    5.21217040045690    6.65532867320146
P         6.01452057641654    3.70598857187605    4.51357226744741
P         4.16094743134131    1.48194334052795    6.38509308193733
H         8.27726231599597    0.68586470459420    6.16964106631663
H         6.76337900925701    1.08505481182649    7.08713651377963
H         8.04523376041428    4.79970111683563    7.12324375835771
H         6.31556873550164    1.86523795058051    8.85556638644439
H         5.05769334264358    2.97586632295195    9.50603935086073

