38
CSD_code = NIWGEH | q = 0 | S = 0 | Stoichiometry = C13H20MnO3P | MND = 7
C         2.52846135701392    4.61109912467868    3.21352822332581
C         3.48398159543176    5.21240162872284    4.03430109383307
C         3.32099519370484    6.55429399543863    4.50069355232411
C         2.08559953369070    7.09332750165418    5.11152158736186
C         1.10249797779659    6.33235696446280    5.58663709393598
C         4.75212955084524    4.46348419802980    4.37177184551484
C         2.06702605250773    8.58638419709818    5.28718841927676
H         1.09883327565017    8.92380763301579    5.64705744961363
H         2.29152991051209    9.08641562984925    4.34491316119560
H         2.82900268311088    8.88373315891334    6.00805624942648
C         1.62318846209790    7.17451226840156    2.30025806601887
C         3.76849184008166    8.20664769091223    1.94820152916118
C         5.02465206309418    6.22314437751186    2.02585098821574
C         3.04759591115685    6.87245133851366   -1.13265617894237
H         4.05749855273705    7.28522180276819   -1.12458937938118
H         2.33873855912244    7.68519135618508   -0.96719659013005
H         2.84815344899004    6.39137730303771   -2.09090392940013
C         1.23752252324371    4.97102087142456   -0.10611706435626
H         0.48040755133971    5.73232733553798    0.07935566757589
H         1.05642911614339    4.12420828817825    0.55473520538400
H         1.18309223475556    4.64434697982907   -1.14522873697992
C         3.96405664319001    4.31968873385053   -0.36626109545543
H         3.65671471585903    4.01939157214726   -1.36858983248346
H         3.89143173825246    3.46774790129696    0.30914255047478
H         4.99709714592524    4.66565071940014   -0.38766197918738
Mn        3.29016208815970    6.53976878037383    2.26774520602956
O         0.58999170217112    7.67143103552201    2.22101253401409
O         4.08062479612466    9.29443126966114    1.70788041753796
O         6.14537296201513    6.13448736183225    1.77587570267330
P         2.89164434558263    5.67307458445021    0.24197183412722
H         1.47319069543466    4.83392228140653    3.33150135151886
H         2.72383820448891    3.59501495908879    2.87963191096658
H         4.20592901011873    6.96972265872519    4.99676853867553
H         1.12649577621159    5.25674880096275    5.53962049588264
H         0.24023171099659    6.76730516670835    6.06301282688850
H         5.01660355666897    3.73500812093012    3.60613118512649
H         5.59662331948958    5.13181592130468    4.53218980107941
H         4.57376419628785    3.92273648817284    5.30415029916312

