25
CSD_code = NIWGIL | q = 0 | S = 0 | Stoichiometry = C10H11MnO3 | MND = 8
C         1.70662269439793    4.77506150572964    4.38867492777037
C         2.84585209907499    4.58979620609586    5.19086400459726
C         3.33665848798808    3.31674866735992    5.58628935168492
C         3.65289676166821    5.79346617879819    5.60943600141830
C         4.17774198377496    4.55769418043739    2.73692254290770
C         1.92532192971482    3.31672391418027    2.02469712256642
O         4.89909784778860    5.35479639949681    2.32818556637802
O         1.13946230220149    3.31658209572937    1.18861476119429
Mn        3.07211102787186    3.31676737404849    3.38772449873396
H         1.52776969844591    5.79769782547670    4.06420675268221
H         0.77855013030533    4.26486451094260    4.60964499788095
H         4.18888307939728    3.31672448752707    6.26426720806152
H         4.71155241498229    5.56530256037592    5.72291379763139
H         3.54519006613058    6.60767779550720    4.89531959770455
H         3.27468518604438    6.14142230820176    6.57345511762988
C         1.70658615248672    1.85845005640353    4.38864361923512
C         2.84580705272292    2.04371913662694    5.19084150271457
C         3.65284320282445    0.84005750333563    5.60942073284045
H         1.52775514266055    0.83582691592475    4.06413219187369
H         0.77849658743039    2.36861794242887    4.60963728483310
H         4.71148845783969    1.06824026328952    5.72294369601692
H         3.54516927415036    0.02585063046669    4.89529799363731
H         3.27459363448970    0.49210329968521    6.57342271410440
C         4.17751869266294    2.07577036943133    2.73663912168966
O         4.89944609294556    1.27883787250040    2.32850489421302

