96
CSD_code = NIWGUY | q = 0 | S = 0 | Stoichiometry = C48H44ClCuP2 | MND = 3
Cu        8.26794749353208    9.74779797653507    5.09898950447882
Cl        8.73801530385474   11.41883405608156    6.43591334514031
P         6.24643041235981    8.75862979982523    4.99395163100972
P         9.89120900846104    9.00123036772631    3.74279409777524
C         6.23757944556592    7.10824923128111    5.75722463775235
C         6.85184236551498    6.06760835223057    5.05907282435409
H         7.22708470537346    6.25115398965965    4.05906375383748
C         6.97690289878105    4.82016150407611    5.63784135307928
H         7.44845294000574    4.01709147619434    5.08993887122300
C         6.50637040723437    4.60332521894520    6.92434096569506
H         6.60589257811101    3.62824752185305    7.37832339554431
C         5.91673114008878    5.63899175634243    7.63009034455992
H         5.55936948124810    5.47227707202811    8.63585777967109
C         5.78683239808410    6.89089248217385    7.05459175691053
H         5.33546321939702    7.70237991398404    7.60840332180911
C         4.90739600951822    9.62406703648442    5.88251582690835
C         3.57319858879602    9.24330510781039    5.77230097717204
H         3.29842009280530    8.40709719145722    5.14470892196281
C         2.60143341258693    9.94150983341343    6.46438046410896
H         1.56541086711555    9.64542424666467    6.37994407764753
C         2.95144065382655   11.02010063893459    7.26254056501287
H         2.18600311910435   11.56306181552500    7.79798850210436
C         4.27804689564326   11.40266848029329    7.36950372682066
H         4.55325022063807   12.24463972275307    7.98717324339763
C         5.25719841192462   10.70834754006917    6.68075428489929
H         6.29480811833966   11.00852049451043    6.75222149658077
C        10.73447256743632    7.52117316630244    4.40118515503934
C        10.07122528645313    6.82497329142875    5.40639837391927
H         9.11163771477221    7.19004410583284    5.75230628359390
C        10.63353754183538    5.69224665888147    5.96492052357928
H        10.10582224163153    5.15713596698676    6.74085410213854
C        11.87458635463687    5.25572129573430    5.53206617024909
H        12.32033526588598    4.37339768527351    5.96743357977534
C        12.55355044197607    5.95989998017965    4.54975314228321
H        13.52857353730993    5.62673512527155    4.22393460669910
C        11.99157799164814    7.09067709834870    3.98576813663042
H        12.53043769505235    7.64395265062078    3.22892306341998
C        11.33211636032339   10.05477134399756    3.37044118146841
C        11.72636414415931   10.93510912389427    4.37323659235977
H        11.15837166301219   10.97991668044470    5.29320740317417
C        12.81361581237801   11.76594635839477    4.17412134433388
H        13.11478061312521   12.45318853130233    4.95072498271830
C        13.50717956729734   11.72309704411803    2.97536850008483
H        14.35505828497261   12.37372400066403    2.81722756201990
C        13.10862254806435   10.85453547947976    1.97137243514417
H        13.64537164018417   10.82959346693961    1.03341353010100
C        12.02149493178277   10.02086196374075    2.16236140708672
H        11.69830288016911    9.35537549475343    1.37231725086890
C         5.44042875520022    8.42945722141116    3.38971957109166
C         4.62274829619229    7.32882328227050    3.15800443757234
H         4.49265167306199    6.58709282780961    3.93480536029631
C         3.97637995967833    7.15154697954148    1.94555061253372
C         4.13168612491834    8.11277548526121    0.94135579527160
C         4.95236840602494    9.20574292336399    1.17412896727124
H         5.05971216472962    9.96056200635143    0.40768704395094
C         5.62710039386437    9.36909886265373    2.37400348061536
C         3.10799500744637    5.95000600496759    1.72682354929318
H         3.11404632064461    5.30594321848600    2.60263931652989
H         3.45799010478993    5.37404460893994    0.87073123187281
H         2.08015054476487    6.25057768552511    1.52449636730374
C         3.42949009390717    7.96451644800435   -0.37270494468756
H         3.64648043056029    8.80792257862821   -1.02312420981234
H         2.35110911120239    7.90611114047170   -0.22882413948084
H         3.74556195200179    7.04964451945209   -0.87356860808296
C         6.54045157790839   10.50678896444547    2.60785451607537
C         6.12040681278977   11.58383692759401    3.37899218479318
H         5.10132310412795   11.59248590020694    3.74434621461807
C         6.97568911126462   12.62258040989265    3.71373046499774
C         8.28315915667622   12.61008912641246    3.21698763468644
C         8.69384215118029   11.54845645023953    2.42526517768639
H         9.69738732232371   11.54812861700016    2.02170568849976
C         7.85608712634372   10.47646899215841    2.13673641687186
C         6.52164975799263   13.70126166262731    4.64207298708735
H         5.46872116286693   13.58377076808480    4.88732890157331
H         6.67887136672531   14.68867231889570    4.21021926120319
H         7.10425713542741   13.63808350885523    5.56104064214383
C         9.25342984198320   13.68223579528141    3.59307128639288
H         8.86146975502615   14.67173170222064    3.36190675598574
H        10.20185351344153   13.54559173873050    3.07843131276868
H         9.43022692030594   13.63120605573080    4.66730451964547
C         8.37864360878456    9.28014876458464    1.44573822790623
C         7.92945978126848    8.90314973498761    0.18940939761187
H         7.23077761240329    9.54319520513274   -0.32817841744523
C         8.36147766960468    7.73802375546403   -0.42626121566386
C         9.27602882909498    6.91464415619604    0.23766978302885
C         9.74676279588747    7.29698898065386    1.48400338342848
H        10.45330294222096    6.65871600308946    1.99717542140558
C         9.32690218721171    8.47470838293933    2.09070255556570
C         7.84024621867929    7.36597431785887   -1.77968778045624
H         7.14062293293835    8.11481603095502   -2.14158576870824
H         7.32953055773301    6.40412405215365   -1.74074605323644
H         8.65649990410277    7.27725883099534   -2.49612884443677
C         9.75255987990002    5.63843623147949   -0.38644333928260
H        10.45409721028669    5.12820379754833    0.26886607637500
H        10.24695907515142    5.83696503202578   -1.33715019266998
H         8.91403836734271    4.97110265300679   -0.58366602614601

