84
CSD_code = NIWHOS | q = 0 | S = 0 | Stoichiometry = C29H45BIrN7Si | MND = 6
Ir        6.51236184179150    3.07907045456316    3.64323137167370
Si       11.54978061462037    4.75755238527676    1.66352760849517
N         4.58228910698320    2.11033627787898    3.39969761850575
N         3.72587509743395    2.22680169426237    4.43270307086132
N         6.44908057314061    2.23291879985189    5.69256218538225
N         5.29729075250795    2.36305801466772    6.36444668632284
N         5.32867621988947    4.76465615181186    4.46942185121621
N         4.37049867330100    4.45332507031907    5.35249135246160
N         9.21388959222842    4.08735314594015    3.05208143804220
H         9.02713554537577    3.59563350291264    2.17855254502516
C         3.97725426025850    1.39043253309943    2.45892125428784
C         2.69828260038647    1.03460185526759    2.89893406849549
H         1.97003666954648    0.45583778634984    2.36680704981619
C         2.57466504712451    1.58420474569284    4.15751987460529
C         4.55180757280434    1.01568469372279    1.13916054140883
H         5.56947597490885    1.36894384706598    1.04257116172715
H         3.94677924544756    1.44412384722916    0.33984247459824
H         4.53297763628240   -0.06817102925757    1.02540390398754
C         1.40592502704748    1.50664228004703    5.07443922318991
H         1.68019460557231    1.03189669807059    6.01491180487260
H         0.61947424598610    0.92222132334308    4.60321697206403
H         1.01937315407344    2.49995678514659    5.29642043013696
C         7.32486307200999    1.64191210585998    6.49784414633702
C         6.71516620824986    1.38391578254487    7.72919251962796
H         7.15679122846115    0.91755882560633    8.58706925552940
C         5.42283008671283    1.85667238034459    7.60569480089723
C         8.72370539027467    1.30446265331196    6.11972802188835
H         8.75248378546423    0.34327496646674    5.60761311202370
H         9.33911458293083    1.23549726786246    7.01440268989486
H         9.13297813702981    2.05993524326484    5.45536938491900
C         4.33681289593108    1.83868088807055    8.62158330279611
H         3.99958656808791    2.84909855811137    8.84729927088717
H         4.70544560138723    1.37938473717497    9.53543386022418
H         3.48048895049503    1.26967086369988    8.26332803720272
C         5.35532539763635    6.08729288061695    4.34799420322232
C         4.38046540126569    6.64461629303995    5.18066500492672
H         4.15262583548747    7.68401339151874    5.30798272585069
C         3.77271366171028    5.57192278767143    5.80423434115431
C         6.27455824758983    6.83430483105275    3.44746297614719
H         6.40603168123593    7.84908796154451    3.81780814022009
H         5.85489524389003    6.88649028794315    2.44321268704068
H         7.24072584411600    6.34141068140193    3.39115097218378
C         2.66641026088093    5.59306523369303    6.79787266623791
H         1.80129166086615    5.04623281770393    6.42653348958874
H         2.37433387890950    6.62245009469548    6.99037024932806
H         2.97791552612443    5.13483739313833    7.73518547998217
C         8.21280571249184    4.00935983006394    3.97319534851887
C         8.50175791299049    4.68886537919045    5.18599292750796
H         7.76138166456964    4.67274259361273    5.97058830644540
C         9.68139491190142    5.35608722584744    5.38218051925722
H         9.87865346533382    5.86271754773304    6.31646041835805
C        10.64230827231910    5.39296412118747    4.35846116013381
H        11.56902377216451    5.92467480114046    4.49537756222543
C        10.38818602908397    4.74441490259691    3.17769489563408
C        13.22470684881544    5.52287740126693    2.14866895356510
H        13.91710558494326    5.49898974004594    1.31278791272096
H        13.68690426724960    4.98292285982748    2.96947703576440
H        13.11847509265522    6.56007643556388    2.45144311115467
C        10.67491417316067    5.79755778855670    0.32765371660861
H        10.55379976966409    6.82973011307801    0.64333910353699
H         9.68694298965375    5.40365629809890    0.11026444872491
H        11.23751671269651    5.80280918168485   -0.60092298329548
C        11.75854014916688    2.95347326658319    1.09356126407449
H        12.43549379574688    2.88614708271597    0.24755143244899
H        10.81051777110130    2.52368353047100    0.78778325502507
H        12.16163601929419    2.32793887582256    1.88443822651577
C         7.57227735376490    1.49437520684565    2.78333190365408
H         8.51603941301031    1.25108960171957    3.28886240334455
H         6.97773898695784    0.57328879057009    2.83403193195416
C         7.88810317024622    1.77272624861410    1.33504822698380
C         7.41566887680876    2.90025060597305    0.79983163584166
C         6.55976776443478    3.78403858620728    1.67352838089193
H         5.54378006146388    3.78192999234503    1.25835165474361
H         6.91025626822477    4.81848726230684    1.56090799512253
C         8.66706277297760    0.71472977386806    0.60462542087735
H         8.02496786736251   -0.14581271712856    0.41254994211844
H         9.50233770665215    0.36699512667571    1.21254294741193
H         9.04611935882632    1.06614208091210   -0.35257484134785
C         7.60362459623728    3.32837690321625   -0.63251938757341
H         8.61778460216745    3.14066735882100   -0.98567476350086
H         7.39126966987043    4.39087664003799   -0.73905491507312
H         6.91902874037903    2.78576451967089   -1.28583948086736
B         4.05796062574279    2.99558910867842    5.71719862570229
H         3.14696404643395    2.95402614599359    6.46555987949634

