53
CSD_code = NIWJUZ | q = 0 | S = 0 | Stoichiometry = C20H20N2NiO10 | MND = 6
Ni        1.97366449751450    7.00569435389162    4.10672667760080
C         5.36251699789422    6.14654042750138   -1.39989803111488
C         4.82995597622551    6.85780830581879   -0.25051829239862
H         4.67376101627649    7.91873673503207   -0.36939549036273
C         4.53750725457450    6.23502417418391    0.91182586266159
C         4.76419298806573    4.82474039957860    1.08176229409506
C         4.52022241074194    4.12537051577892    2.27029718238326
H         4.12519971331356    4.65493905629536    3.12316607545973
C         4.77405414706730    2.77582874786714    2.35268473625567
H         4.58258243678465    2.24613688176461    3.27318907746482
C         5.28385061972465    2.08766898152379    1.25377511177612
H         5.48048695750602    1.02869189951538    1.32622301011173
C         5.54235724236584    2.75219294967480    0.07694900982037
H         5.94321397622192    2.22575844827712   -0.77711709947068
C         5.29074322316364    4.12311005223598   -0.02262532223106
C         3.95995094932816    7.05775785781511    2.04158653710694
N         5.54868052345598    4.79481794927029   -1.18474080652827
H         5.92199865649488    4.27218424258807   -1.96889257690970
O         2.91859148205582    6.57025137331835    2.56697925087520
O         4.50505288845716    8.12294269990681    2.34663164006138
O         5.63083982361184    6.63979002340302   -2.47787773405349
O         0.28900505131557    7.93939455468812    2.73291448603930
H         0.62994231484543    7.64597306741327    1.88061082044909
H        -0.43825899029376    7.34553747523408    2.95111692465404
O         0.86727369018759    5.20743877984080    3.82330033336728
H         0.23334866797444    5.29409295031271    4.60239108474491
H         1.44114460960746    4.45855571988749    4.00871766686745
C        -1.41593192999479    7.86354322674798    9.61351641907157
C        -0.88303361203995    7.15264290441038    8.46407828380212
H        -0.72677630755675    6.09169489212765    8.58271509630487
C        -0.59016358233761    7.77575179980553    7.30202641727755
C        -0.81685039786072    9.18609708627701    7.13244839764361
C        -0.57252905451127    9.88586558952136    5.94421933924337
H        -0.17712699579502    9.35658793121915    5.09134770693209
C        -0.82653314341533   11.23539200866906    5.86211882365591
H        -0.63485668239474   11.76537574128946    4.94182712366579
C        -1.33678575487813   11.92317824776507    6.96105136307806
H        -1.53352203430613   12.98215293452306    6.88884173523364
C        -1.59560472562580   11.25828119438524    8.13759396619933
H        -1.99681258260486   11.78441730728728    8.99167998695460
C        -1.34386080755540    9.88736524651486    8.23685570031577
C        -0.01213080142025    6.95308696337077    6.17244687455632
N        -1.60216443620650    9.21530988830640    9.39868421790182
H        -1.97582951888168    9.73769608525312   10.18283579212180
O         1.02880373862805    7.44099300813561    5.64659403780706
O        -0.55734071902179    5.88802750678919    5.86709474695584
O        -1.68479675008535    7.36992146971652   10.69118658794686
O         3.65870453232029    6.07250193007200    5.48027255090201
H         3.31758694885240    6.36632918887870    6.33255885176569
H         4.38582323129736    6.66651224219446    5.26207297531755
O         3.07984742069836    8.80407524004361    4.38991037652318
H         3.71415858022851    8.71707883349649    3.61117804666528
H         2.50594625998641    9.55274291060749    4.20366215345083

