76
CSD_code = NIWJEK | q = 0 | S = 0 | Stoichiometry = C27H39BIrN7O | MND = 6
Ir       12.09366408821245    2.73307183929321   10.85550930906649
O        11.68025722803754    5.67365251331355    6.68584608768088
N        12.05212518265120    2.66996404464167   13.02036399919750
N        12.04259116193346    1.45442097997614   13.59717971852060
N        10.59344785317437    1.10699981828685   10.97431158376069
N        10.82390498206096    0.13470402849396   11.86838684350745
N        13.58254919186786    1.09164828771685   11.02354017277782
N        13.31728517966393    0.12482042746028   11.91501636260534
N        11.78010587013387    4.12833153356423    8.38023629747884
C        11.99453296263860    3.57383214506874   13.99601890533567
C        11.95330658583499    2.92032264413944   15.23096178608377
H        11.90719847625663    3.37377951421633   16.20075151506164
C        11.98467956677138    1.57291890779818   14.93670795796964
C        11.94816781385452    5.05093754170404   13.82046711373411
H        12.34636563673778    5.34099469559916   12.85766302558900
H        12.52250002254243    5.52991924698230   14.61184085543868
H        10.91773681390728    5.40034352566523   13.89420841010216
C        11.96198155780520    0.42971565220048   15.88774110629508
H        11.08540319593597   -0.19474004313483   15.72306346555459
H        11.93434256894650    0.81056969194997   16.90567219668913
H        12.84774554890265   -0.19185277842892   15.76894170558407
C         9.48099848320647    0.79683853214051   10.31659165223494
C         8.97831647839480   -0.41179570454606   10.80731714716905
H         8.09538393923045   -0.92564057259969   10.48358110611492
C         9.86092302312156   -0.80310096485267   11.79493228108124
C         8.87450752036036    1.61829898808847    9.23398147832896
H         9.64112730497170    2.16842923746357    8.69771539773481
H         8.16112771931015    2.32874413131451    9.65221890938185
H         8.34128086975378    0.97134043896084    8.53993910774955
C         9.80542763720842   -2.02237219934935   12.64456130316143
H         8.92264576730730   -2.60179629503886   12.38587141403165
H         9.75538378892933   -1.75748605541551   13.69931699117480
H        10.68843904345692   -2.64114375590595   12.49330925050768
C        14.72519465989656    0.77979397773712   10.41950440815095
C        15.20919584763546   -0.42370510956509   10.94147717409997
H        16.10740420648713   -0.93674185838655   10.66134089030010
C        14.28557578399756   -0.81029683926822   11.89225198211495
C        15.38513348533970    1.59159773234107    9.36088108123126
H        16.07845797392496    2.30270897747360    9.80992838492725
H        14.64910395779150    2.14012555866481    8.78186725223324
H        15.95133235002538    0.93759602708653    8.70007355198323
C        14.30673082100401   -2.02263098730180   12.75335647444878
H        15.20130816503593   -2.60179076915202   12.53824369844216
H        13.43261045581878   -2.64508798199300   12.56875677151772
H        14.31007004479398   -1.74922191296555   13.80710693324505
C        12.05047796435363    2.88290971910322    8.90407201214072
C        12.25027067927252    1.83842037259545    7.98346620923636
H        12.42419194801085    0.84811315288934    8.37281843364965
C        12.22105810715964    2.05676288358304    6.63162794452880
H        12.36486239317668    1.25033123072900    5.92785602771628
C        12.02910213674416    3.35504405564099    6.15332504969712
H        12.04787243369061    3.54554133701576    5.09464498037446
C        11.82884467698323    4.38220661649473    7.05304837199348
C        11.73586606348331    6.01074952878989    5.31996835052781
H        12.70416943763779    5.75319420554785    4.88061246208247
H        11.60108622674690    7.09068656490287    5.28419830493174
H        10.93476429735908    5.52916908844713    4.75145755155209
C        10.81037660148834    4.31641147014342   10.54928132202942
H         9.80876139623414    4.04499817543795   10.20203170512701
H        10.67110304796181    4.97127805233383   11.40911978983143
C        11.51571577147133    5.12115664229685    9.44085970352315
C        12.88293092608485    5.53822595929700   10.03536267205233
H        12.66090306364323    6.30035920735628   10.78902168391163
C        13.49871914891938    4.29128998495535   10.70434251480927
H        13.91729480039267    4.56172547627015   11.67660271836085
H        14.35147954860781    3.97192091930448   10.10169137213513
C        10.63735045927592    6.29714381287019    9.02205836343519
H        10.26896204059300    6.77425098461587    9.92764327225716
H         9.77922620934921    5.94912455399372    8.45188716624535
H        11.16771043849348    7.04200582344316    8.43850509133681
C        13.83576917437149    6.15478704902329    9.01307018705912
H        14.09839516218747    5.43226094512663    8.24256482871572
H        14.75293178786971    6.46199406850287    9.51131270228136
H        13.40060478301143    7.02952730312792    8.53391728167234
B        12.05555723929816    0.15456341699751   12.78597670345110
H        12.03767122125124   -0.77766941226290   13.50760216394100

