68
CSD_code = NIWKUA | q = 0 | S = 0 | Stoichiometry = C30H22CdN4O9S2 | MND = 6
Cd        5.01530138773160    7.37061174553997   11.00548716829539
S         5.85523716050553    5.35261544721815   12.76030256991471
S         0.67255955051773    5.76291385922628   12.29028172743994
O         3.51115032177403    5.95310601705856    9.88794691884057
H         3.83965176106510    5.09513707905712   10.18461686866696
H         2.60112980004798    6.06015010760830   10.30454192006300
O         5.70788729311492    6.78743815369840   13.07592603021406
O         5.79678198290239    5.18809592442093   11.29107136019230
O         7.01198150024794    4.73857883331527   13.35939624474145
O         1.27671622800045    6.36709354473934   11.08571138918930
O         0.38694644386897    6.75466145054039   13.30734454086115
O        -0.44600977063919    4.87614807058005   11.98053891654236
O         0.61732493497933    2.75607171795333   12.99353229190413
H        -0.00870962898137    3.44441809476599   12.61989628460540
O         2.79637655520685    1.26746254533274   13.72573262412377
H         3.65378880089672    0.87200667915941   13.92627968806984
N         3.93958664127838    8.69038697491777    9.43644859243643
N         3.52789795819006    8.69201522846700   12.10692994359576
N         6.82006079691496    8.78013997270467   11.49462926723081
N         6.78684390189046    6.93949799303692    9.52251010644506
C         4.15281133349989    8.69044759621469    8.13936807179543
H         5.17513194842263    8.52059614393852    7.82714128734650
C         3.14034490496024    8.90379674821195    7.19953113558415
H         3.37007166036767    8.88457770643815    6.14546251907324
C         1.85757998809495    9.12283879536052    7.64142809192938
H         1.04482609113673    9.27516751788115    6.94583237400717
C         1.60229919064537    9.15043348317979    9.02174629427033
C         2.69595232118709    8.92312623727547    9.88766673099587
C         2.47877273076060    8.94409419815520   11.30778196870777
C         0.30718559260015    9.37913340557661    9.56694094766919
H        -0.51648076253559    9.51343062268100    8.88125273509970
C         0.11051923292854    9.41409156123141   10.90627782707975
H        -0.87386164723757    9.57248360115649   11.31971981158544
C         1.18976022715492    9.21695555295686   11.81201647744300
C         1.02719592354983    9.22811552632677   13.20691228232682
H         0.04970856391750    9.39048999273586   13.63159957095718
C         2.13151936853295    9.04742865427878   14.00904934608750
H         2.04475112196335    9.06631263244614   15.08324703536485
C         3.35957887201756    8.76004530551079   13.41488924045649
H         4.23779295062274    8.54449335941181   14.01168418085740
C         6.81347459359816    9.66800805364370   12.46365674230306
H         5.97363902137733   10.35267877053416   12.47592888787268
C         7.81566900499764    9.75133098293808   13.43536051325531
H         7.75320932460602   10.49746302519494   14.21243933833085
C         8.85703254660570    8.85682268259196   13.39360767397817
H         9.63804532951735    8.87023915690317   14.14037764811340
C         8.89782820240932    7.90068188049287   12.36614651356937
C         7.84277656966935    7.91051557860554   11.42724984982794
C         7.82486944431062    6.92902808583456   10.37701725441640
C         9.92583262385859    6.92107169051028   12.26099302107025
H        10.71141733607801    6.92535900351167   13.00209104102552
C         9.90586994285643    5.99370551919950   11.27511557109307
H        10.67473870396174    5.23800573523539   11.21025410964798
C         8.85831641271592    5.96970512636234   10.31083952695660
C         8.77479910867784    4.99885903190365    9.29964639391627
H         9.53752132421267    4.23657442696107    9.22847538313314
C         7.71107401024794    5.02647814669569    8.43225445907626
H         7.60863901199141    4.28801189633566    7.65224955888829
C         6.73528640259199    6.01630476232772    8.58854286338930
H         5.87354986085764    6.04721196025930    7.93274869254344
C         1.97445480276174    4.70651010383694   12.90933706893445
C         1.80378098667422    3.34798449670241   13.12563527244511
C         2.95443552473260    2.59182606397963   13.47205988596355
C         4.20428247445082    3.19699858422821   13.48474366904118
H         5.09444478463086    2.61421566394027   13.67586416549731
C         4.33439704581138    4.55569119096594   13.23929989886422
C         3.21034238492256    5.30499883090461   12.97751457295211
H         3.28060998883995    6.36421146911167   12.80197804183062

