57
CSD_code = NIWLAH | q = 0 | S = 0 | Stoichiometry = C16H20N2NiO14P4 | MND = 6
H         0.82674510636920    1.14761317918203    2.54651865642019
H         1.08484810078848    4.58727072998309    6.08594358520732
O         0.79745515315072    2.46599703767432    4.33221123858189
H         0.06379954749715    2.95353250071562    3.91830783951177
O         3.06707460109384    5.63010953097905    3.57046408096525
Ni       -0.00541457650739    5.11498987884690    1.87839279397779
P         2.17032631405570    2.77615140335498    2.06735474207936
P         1.96282442703553    4.84445447323990    4.13425336894067
O         1.20013197239779    3.80808991217244    1.39520756887116
O         0.53310924603595    5.22577180802640    3.62834999347494
N         1.24193268373754    6.49736085970946    1.48454036959518
O         1.47536627311059    1.34297851677971    1.85903116629814
O         3.49409288287689    2.84261200100968    1.45047874443894
O         1.83241988108710    5.05998415157062    5.71454396932942
C         0.67950408693205    7.70392393488632    1.68824891886418
C         2.51389316129065    6.41238805186484    1.16175779076040
H         2.92904999523927    5.42720526623668    0.99245501642700
C         3.29789993797088    7.56842935498457    1.02133621140692
H         4.34129530983340    7.45262962889129    0.77745064947506
C         2.02304995955575    3.02337451507098    3.89107442673748
C         0.65643224665397   10.12887353355900    1.72327347618290
H         1.18942942670621   11.05972020132496    1.60200287341277
C         1.37898445748298    8.91389447287656    1.53510742695322
C         3.18969908982632    2.38245983897312    4.60158655045157
H         3.10833873900116    2.52516106687100    5.67793620003436
H         4.10179568233426    2.85097495007598    4.24039616457673
H         3.22274663401347    1.31681690248003    4.37890373379240
C         2.74415409589346    8.81164326441171    1.20427863702259
H         3.33765393752184    9.70768863070302    1.09740499938525
H        -0.83758558848793    1.14750230981948    1.21076414094840
H        -1.09561439532695    4.58672243644654   -2.32909887742343
O        -0.80822244809154    2.46571689385333   -0.57510804632619
H        -0.07457424174965    2.95330039770822   -0.16124117528631
O        -3.07788910222695    5.62990361870354    0.18621271819422
P        -2.18115253592478    2.77612786521744    1.68967317418664
P        -1.97362191876452    4.84419449193109   -0.37745969398085
O        -1.21092331909540    3.80810865110084    2.36170939722361
O        -0.54392191069761    5.22559569979948    0.12843796148679
N        -1.25276981831354    6.49736699420283    2.27220511426141
O        -1.48624818388762    1.34295677067167    1.89818808085116
O        -3.50492617719543    2.84271298711786    2.30652252758077
O        -1.84316874580906    5.05952150390652   -1.95777345992747
C        -0.69024272629678    7.70393283648036    2.06878152652483
C        -2.52472007513585    6.41241916118411    2.59502808676667
H        -2.93995388093980    5.42723223709127    2.76411570832886
C        -3.30862897342093    7.56849017134211    2.73572792717434
H        -4.35202742871236    7.45271949490022    2.97961275591862
C        -2.03382709991386    3.02313795454558   -0.13406870576477
C        -0.66693734754853   10.12889219161235    2.03447063131173
H        -1.19983955473501   11.05975503514997    2.15603668509233
C        -1.38960730575439    8.91392674610963    2.22227488687150
C        -3.20045203469403    2.38212195599785   -0.84453364192853
H        -3.11905032618807    2.52466563984131   -1.92090094463987
H        -4.11256422587227    2.85068336077578   -0.48344552542368
H        -3.23350011738430    1.31651109762244   -0.62169722175992
C        -2.75477721644750    8.81170626672207    2.55310537881225
H        -3.34819167435522    9.70777563368542    2.66024939777586

