56
CSD_code = NIWNOX | q = 0 | S = 0 | Stoichiometry = C26H20N2O7Zn | MND = 6
Zn        0.69294529409706   10.20277858108605    7.74472081201903
O         0.96629954601351    8.63137880280837    6.52708988644724
O         0.67158345289943    8.31168863046083    8.66609368013926
O         1.21899758127669    2.30212681993828    6.73608508909664
H         1.38792780911190    2.08961827422542    5.80991157618348
O         0.44772971203138   11.79740016146854    6.64009885181974
O         2.46974314275333   12.72885437265333    6.63432595014034
O        -0.70020610569033   16.65423944874390    2.80049517529577
H        -0.00049554774398   17.26661636971741    2.54240912864553
O         2.79371717614773   10.53854940553781    7.90951555759906
H         3.25481317176280    9.95032983672696    7.30415937915167
H         2.79435076329448   11.44644897686191    7.44063009555482
N         0.32377097775036   11.16413083397465    9.55964708079707
N        -1.41921098808175   10.06183991153495    7.81920900843305
C         0.85964274597178    7.85984870807073    7.51693419321672
C         0.95471042186351    6.39214589900444    7.29839313245698
C         1.18285791395406    5.88764251478287    6.02310027934830
H         1.28830545755257    6.57942641562075    5.20161144032547
C         1.27427231745346    4.52543765800105    5.81937489266659
H         1.45434647015277    4.13220104865035    4.82675139232618
C         1.13695549415297    3.64988600308520    6.89230850584887
C         0.90736027497088    4.15201573520434    8.17172866070699
H         0.80528047146531    3.45570397576732    8.98907417857433
C         0.81866108024586    5.51305661871387    8.36923240665184
H         0.64521867427715    5.92172454494129    9.35270320706115
C         1.27783163543040   12.68197576846881    6.28147553725526
C         0.75633971087528   13.74816462866949    5.36539027308393
C        -0.57830660499526   13.75159328289015    4.97108389692199
H        -1.22886451851395   12.97548966271266    5.34459947562637
C        -1.05487575237240   14.72400664466147    4.11832301777346
H        -2.08605350858053   14.74089829728506    3.80150567199461
C        -0.19515888313291   15.71163742789891    3.64324485254484
C         1.13955507278954   15.71332264189592    4.03415153060464
H         1.80609874087567   16.48142946867652    3.66208605901537
C         1.60913017069306   14.73698162639004    4.89012867288087
H         2.64271203310060   14.72425634244382    5.20086902308157
C        -0.97590882816394   11.17016184215960    9.87532000910298
C         1.19204811786217   11.68505036301724   10.39128522727010
H         2.22586977359125   11.64647516088353   10.08222021382726
C         0.81718042798075   12.25977583549465   11.61160501290460
H         1.57039320335117   12.67591268617357   12.26182417892169
C        -0.51139450743409   12.28225177180686   11.95855509536831
H        -0.84093254428131   12.71712534341122   12.89153897487267
C        -1.45795711887024   11.72659972804435   11.08071086886501
C        -2.85596120406740   11.70358679097253   11.35545459869957
H        -3.19943328039808   12.13496990572131   12.28439891488929
C        -3.73193101708224   11.15700824682469   10.47837122015896
H        -4.79117648377418   11.14217350925466   10.68994984290312
C        -3.28282268695041   10.58489859984399    9.25325826097053
C        -4.14910881456544   10.00539263365376    8.31039404030223
H        -5.21191390441064    9.98376910484138    8.50582803312860
C        -3.62621451089486    9.47724159843098    7.15523110051814
H        -4.26291347212349    9.02752411209431    6.40964839173691
C        -2.24190260759261    9.52810757768886    6.95105693082375
H        -1.78944285178572    9.12361305515143    6.05687157257273
C        -1.90346309424073   10.58781679493734    8.94891594085308

