49
CSD_code = NIWPOA | q = 0 | S = 0 | Stoichiometry = C24H20N2O2Pt | MND = 4
Pt        7.26251902034981    6.40740287489793    8.92977449041461
N         6.06938737735228    5.40217173269448    7.70568723989784
N         4.75385520383909    5.32610216042117    5.91329851089915
O         8.44098031194227    7.56085573627266   10.07445421843057
O         7.86648840231737    4.71930042827515   10.08882944780617
C         6.62682313740924    7.91410134137799    7.78772479036355
C         6.92135913358726    9.26561566687187    7.92201532020769
H         7.59824236360438    9.58321936314807    8.70161046430315
C         6.35820234006729   10.20953526116210    7.07770706016967
H         6.60174801980353   11.25579190870198    7.19929738772469
C         5.47114323120112    9.82554672343953    6.08236347232394
H         5.02236191119839   10.56891296083540    5.43957583648607
C         5.15478039514627    8.49203667813323    5.91226652630481
H         4.45106328533018    8.20103052177266    5.14651743757994
C         5.73919116306877    7.54062424131940    6.74684925620998
C         5.50942039045252    6.11658245171247    6.72779085627813
C         5.67010349762165    4.10209624466841    7.54459022070728
C         5.95361838261224    2.95277058596811    8.27482407566488
H         6.59510451449631    3.01161262620488    9.13798711197797
C         5.39055430881187    1.76985104577188    7.84532958014637
H         5.58747111595063    0.85842983835833    8.38959783840613
C         4.57139930255676    1.71497239562538    6.71547819616717
H         4.15744128141783    0.76543943615054    6.41137956479273
C         4.27982308687195    2.84514735719712    5.97740097561840
H         3.65388591916114    2.80122675308937    5.09918029625190
C         4.83065152928619    4.04064278470283    6.41205179340325
C         4.10355349708489    5.66568538400255    4.70906125392468
C         2.74263108583894    5.42505757027239    4.57053287014358
H         2.18596278815140    5.01779731921584    5.40114999312480
C         2.11369585613790    5.72288421326236    3.37432461285594
H         1.05497906223241    5.54076968678582    3.26757635265507
C         2.83690572828816    6.25599594886955    2.32068142040154
H         2.34247432782070    6.48825516299609    1.38976339838607
C         4.19543171118620    6.49102217522809    2.46069473756820
H         4.76136951580765    6.90341066404306    1.63926848356998
C         4.83442696520661    6.19301283669285    3.65008789237702
H         5.89255763136975    6.36978931597096    3.77142278226656
C         9.93817381803455    8.28702448865643   11.74318638098310
H         9.74014943773004    9.23786140151518   11.25589422461486
H        11.00377420836287    8.07347585735289   11.69789620571014
H         9.64630358695687    8.35035274357823   12.78918489131800
C         9.15632395527941    7.18788996694711   11.05116933658048
C         9.30557052655245    5.89814562622769   11.55535687244822
H         9.96687192034215    5.76821066177790   12.39854632780409
C         8.66767554316736    4.75812598098845   11.05483724058146
C         8.97672474956134    3.44632924468759   11.75073673522230
H         8.44098051772143    2.63264515204337   11.26821524600726
H         8.67926269255871    3.50195180200501   12.79585027803575
H        10.04538224915387    3.24658767811037   11.71048049488404

