69
CSD_code = NIWPUG | q = 0 | S = 0 | Stoichiometry = C38H26N4Pt | MND = 4
Pt        3.44647295457827    7.04662464258170   10.49201603056379
N         3.47551522622686    8.93223685162749    9.46698037825107
N         2.74003484222493    9.98128048982979    7.64627365361338
N         4.58064093762790    7.49306609532946   12.24874578193037
N         5.28592433110964    6.67974168362056   14.19617465770516
C         2.92472959584117    6.41786718476279    8.66564759654909
C         2.87114146245418    5.10835384852667    8.18529546959423
H         2.90841136078307    4.28211265914627    8.88065349269225
C         2.77348100501823    4.82869093701591    6.83166686939081
H         2.72260264953671    3.80145182197146    6.49758456575835
C         2.75981457971716    5.85301998612586    5.89774150741983
H         2.70304218945077    5.63054185154248    4.84200416987845
C         2.84225446140412    7.16387295419781    6.32248633807487
H         2.88248639574328    7.96137162492877    5.59402083684347
C         2.91174637815545    7.44454798015925    7.68562626228091
C         3.02991388137203    8.78002930899406    8.22971170436147
C         3.43942885263949   10.27143769951981    9.74535155870030
C         3.70805231436661   10.97880929624621   10.91283713561610
H         3.99740937103332   10.46584995643900   11.81546914131583
C         3.56095461403105   12.34960346701371   10.88076651192597
H         3.76415136416096   12.92409786214215   11.77226344164786
C         3.13998800790863   13.01606303790450    9.72934550704408
H         3.03221732223850   14.09006804122495    9.75177703333083
C         2.83806709058260   12.33032152008898    8.56901541741552
H         2.47980519623343   12.84133895384950    7.68814935469198
C         2.99653292481086   10.95464527834809    8.59122115049644
C         2.11107169239414   10.23060834318393    6.41099906211959
C         0.88619283898902    9.63739730742486    6.12409756563892
H         0.44347010463966    8.95995444913263    6.83869097127277
C         0.25908177820438    9.91333622161292    4.92389232502390
H        -0.68956253218392    9.45013467060621    4.69883247525793
C         0.83956221913290   10.78558411717282    4.01673958541244
H         0.34434118559708   11.00085440808729    3.08206141175201
C         2.05488284198037   11.38105914335982    4.30895789887823
H         2.50990012235681   12.05953127246121    3.60294317030063
C         2.69492407865691   11.10689593813197    5.50477276245429
H         3.64882470735023   11.55764007758809    5.73581376538836
C         2.83581746370382    5.53365787489012   11.65097963738285
C         1.78596260926166    4.64196510004210   11.42585662519504
H         1.35074775573436    4.56634698421508   10.43999025404422
C         1.27597758576085    3.84145020457597   12.43544017961258
H         0.47039292933434    3.15302692281629   12.21989939616440
C         1.77389408275179    3.92915845976491   13.72604142279144
H         1.35841114356635    3.32019776791723   14.51585417761270
C         2.79343451392174    4.81722377436614   14.00432795612551
H         3.14915552756309    4.92193846629179   15.01942706737846
C         3.32825505946147    5.59801497808004   12.98149252211125
C         4.38823738441656    6.56434933550099   13.17199042038144
C         5.66952085757638    8.22552313757397   12.63354079294036
C         6.35963723853163    9.25371621771433   11.99930463082511
H         6.06049059755198    9.59848558313597   11.02266872986162
C         7.45175374849606    9.78854863180747   12.64965561206992
H         8.00615691757976   10.58875946656396   12.18236096928609
C         7.87172958442246    9.31225963558656   13.89240111853226
H         8.73602818467240    9.75718348917015   14.36210952874519
C         7.22010696290331    8.27103101513336   14.52426005394534
H         7.56438946879064    7.87958989233985   15.46962122939493
C         6.11530307963832    7.73764243461793   13.88150581480529
C         5.49252992495034    5.82035012318653   15.29313866438536
C         5.48975760932799    6.33868518598238   16.58205719894672
H         5.29022874706150    7.38906870372246   16.73512898243695
C         5.72772532578829    5.50048806869017   17.65701282387935
H         5.72104033312781    5.90219160044263   18.65923847965417
C         5.96820057754300    4.15289414768698   17.44945160011131
H         6.15046221698857    3.50180439552682   18.29091653345387
C         5.97493706619162    3.64000652977119   16.16192329120723
H         6.16538565571716    2.59021373625361   15.99823491300293
C         5.74455926478740    4.46922634990753   15.08049371250042
H         5.74626223652145    4.08106080481808   14.07304910061356

