44
CSD_code = NIWPOB | q = 1 | S = 0 | Stoichiometry = C17H22N3OPt(1+) | MND = 4
Pt        1.60875690255031    2.46555200934311    6.88957824057012
O         1.92391341813328    1.09252537337011    5.45937645274427
N         2.14435212748950    1.18935834509871    8.33898188398768
N         1.31516862464590    4.16674070789547    8.16890934632181
N         1.10265954638622    3.50282238910610    5.24829221664914
C         2.57717296399867   -0.01657520253248    5.59097027695465
C         3.00491316985819   -0.55531346916491    6.83602862122846
C         3.70903680104626   -1.78138857803226    6.84536668916167
H         4.02916372188435   -2.18160631913438    7.79622903342700
C         3.98961976344471   -2.45426808271840    5.68959824984485
H         4.53184822896407   -3.38548605685519    5.71530927242850
C         3.56022718177185   -1.92800869062514    4.46546003912591
H         3.77456416957626   -2.45985877794244    3.55105863858126
C         2.87081666812486   -0.74668230176529    4.41650780146571
H         2.53209731085943   -0.33263874371812    3.47924560405415
C         2.71299290266137    0.05038790842085    8.08199044285442
H         2.99613908734825   -0.56205926704545    8.93940490406965
C         1.85314284083028    1.45906877989778    9.73687341279522
H         0.78449158620556    1.28137240082576    9.91056254140398
H         2.41038681547266    0.76105754362508   10.37152114274469
C         2.19923012140032    2.88545213244309   10.15301598819462
H         3.21612685458748    3.12309590310666    9.83901900768230
H         2.17149201791078    2.93594013872576   11.24215514060103
C         1.19648207417617    3.89686465672236    9.61429850750527
H         0.18987462042642    3.51535742337395    9.80593220923586
H         1.30652862919654    4.84356177505978   10.15937462095289
C         2.49859990763229    5.00851067732828    7.92592295614329
H         2.47846377079328    5.89511601671921    8.56844928794756
H         2.51549417128883    5.34232858368745    6.88912768680630
H         3.41372447067754    4.45282016042482    8.13000804946008
C         0.11727654660175    4.93079358451899    7.78359262348573
H        -0.76951120446446    4.30248838925751    7.86503614518623
H         0.20159809576316    5.29648006985634    6.76230325171903
H        -0.00883795784519    5.79582119312096    8.44303820952137
C         2.06932932608151    3.91262165522677    4.42626842471576
H         3.06913535332261    3.97587008558066    4.84133121057109
C         1.83098293571168    4.23912549117771    3.10328065020374
H         2.64335103150577    4.56597446030454    2.47459229628967
C         0.54183217659387    4.12343634539247    2.60580052858099
H         0.32449321247349    4.36144069668304    1.57648235541709
C        -0.45933346864545    3.68305113520681    3.45894007699457
H        -1.47375613474007    3.56664827862265    3.11364753693376
C        -0.13585083356489    3.37919436412245    4.76855930178286
H        -0.89178954813299    3.02490681529188    5.45995912365238

