79
CSD_code = NIWPER | q = 0 | S = 0 | Stoichiometry = C38H32Cl2N5PRu | MND = 6
Ru        5.49124722468532    4.29971921244048   11.58971844460845
Cl        7.73524666411186    4.43974460292098   10.86218055422891
Cl        5.95439650337344    2.21915763232024   12.65325047425123
P         4.99199638400280    6.33804502267286   10.62044209614129
N         5.51508856096529    5.14169624998821   13.43961721691459
N         4.28004888638826    5.06410657870850   14.01507113796507
N         3.72996906616856    3.95399907787737   12.12489602508357
N         3.66385120838411    2.70853280464224   10.23043124464266
N         4.91396686254265    3.22492946623891   10.03850750103648
C         7.77197659226766    5.91826030458496   14.03643093467453
H         8.35986892613388    5.64519236442217   14.91001995933410
H         7.96298025675796    6.96580384542737   13.80430361407272
H         8.07934073596864    5.30840987024090   13.18732120794247
C         6.33168370228860    5.70156739089483   14.30923688351185
C         5.60924823409358    6.02270892959902   15.47482856546149
H         5.99922974983504    6.49105039777391   16.35535838762189
C         4.31706197387354    5.61071144411907   15.26890637428566
C         3.16625379393728    5.72800365931267   16.19933850343088
H         2.34191541153627    6.27231089367325   15.73954533359032
H         3.49018622848918    6.27188871749908   17.08305784909436
H         2.81352033603729    4.74616975135620   16.51440750427119
C         3.28716356338805    4.38859848357653   13.31517685693736
C         1.98607153502400    4.13357839900175   13.71942737051804
H         1.60640526052466    4.47530646014404   14.66284456198318
C         1.16078113260387    3.41560730784034   12.86194343477829
H         0.13573772105257    3.23268135653201   13.13994990174613
C         1.65067431331986    2.91356255348803   11.66528770013823
H         1.01893552994177    2.35669071523258   10.99971070988038
C         2.97425208667897    3.16380935424491   11.34464067889629
C         3.40763107621018    1.79592465367729    9.24573215477246
C         2.45131284563766    0.81416202823381    8.78672332712573
C         1.23952543741094    0.33322546800246    9.26441478500019
H         0.81041936658279    0.68583948442348   10.18787353078092
C         0.57657076502100   -0.65724738106788    8.55852457660013
H        -0.36529680019699   -1.03005007424389    8.93331194753694
C         1.10306482602587   -1.18057520256043    7.38954801099469
H         0.56658719516133   -1.94964382513943    6.85479477027680
C         2.32920907046806   -0.73443147520453    6.91642621371025
H         2.75786803317898   -1.15792347808961    6.02001307260553
C         3.00086483863626    0.24647711366087    7.61113799262368
C         4.35599933522714    0.82218187317101    7.29429335686419
H         5.12511423853228    0.04719811228715    7.29049544470403
H         4.37516858070809    1.31289492610196    6.31854031534392
C         4.52549220410653    1.78284445901931    8.41427322137540
C         5.44022860748967    2.67871134350537    8.95595591658172
H         6.43449554430267    2.93797365596147    8.64476437817163
C         7.29521266901145    7.78487846274669   11.14846056413390
H         7.76155817470520    6.80839258244832   11.18105971925831
C         8.04101122790233    8.94028541594881   11.30946391589508
H         9.10326869785428    8.86972451025367   11.49099707331198
C         7.43055699742015   10.18068668263480   11.23169058816550
H         8.01261865120073   11.08171305147230   11.36001438941571
C         6.07091369280970   10.26938672708377   10.97494861263637
H         5.59685202895693   11.23738258135089   10.89723959218786
C         5.31817023635049    9.12217225229801   10.81002542513478
H         4.26006364784326    9.19522813675660   10.59891763581457
C         5.92710040056751    7.87431141078458   10.91855300070151
C         3.95801219001683    7.13323447331953    8.08745084110108
H         3.14170889473270    7.62142928536095    8.60138294363125
C         4.03807044802175    7.19344613449210    6.70737657689785
H         3.27765954514258    7.72212450724964    6.15048748960682
C         5.08957150785797    6.58643972008244    6.04019251447712
H         5.14260454225204    6.63683431019279    4.96241073769306
C         6.07783028897048    5.92860003700095    6.75520072967137
H         6.90826199178203    5.47243831255582    6.23695837445394
C         6.00425056901709    5.86048505928606    8.13399554520968
H         6.77727813281150    5.37113673909996    8.71488759574274
C         4.93184041050461    6.44574019675832    8.80299548402092
C         3.31161768986866    6.74559478064959   11.18629260723914
C         3.13101124612995    7.45489310175529   12.37148959300037
H         3.99000550248705    7.88950747624471   12.86690309956914
C         1.86546230776779    7.60828808898496   12.90731135324033
H         1.73313792912850    8.17615661120015   13.81729185109398
C         0.77021209019688    7.03633577610979   12.28059627187864
H        -0.21762989816771    7.15665290899097   12.69971038301022
C         0.94521029575598    6.30215487576255   11.11854737990676
H         0.09449467930467    5.84391250417694   10.63562402840735
C         2.20842652745190    6.14887671056941   10.57848645560053
H         2.34868307534130    5.56415204790154    9.67746358572403

