53
CSD_code = NIWPUE | q = 0 | S = 0 | Stoichiometry = C14H33I2OP2Rh | MND = 6
I         2.32825061731750    2.57084230475347   11.55305933048679
I         2.46266611362779    4.27558340212369    7.95554903216618
Rh        0.69845472342350    2.84019343612015    9.34965491981461
P        -0.09904065160135    4.87005946399014   10.20617855221186
P         1.65865230420995    0.90700938818856    8.41652548547416
O        -1.42255890527047    1.20543604443616   10.63755091361338
C        -0.58436677259721    1.84235293742255   10.19044614196750
C        -0.76803572555713    2.96938492730530    7.80341463753960
C        -1.66053162743865    4.66755005630194   11.17780292372238
C        -1.45866991446909    4.03527599949240   12.55095707073179
C        -0.63948524549826    6.08961718944596    8.92439930825108
C        -0.97730795855628    7.49189445107159    9.41626853873537
C         0.88363522335861    5.87704965954347   11.39283871992633
C         2.19303537770405    6.45223521158688   10.87189796487312
C         1.03919983149160   -0.68862217334202    9.12201820284382
C         1.37853747390085   -0.94626816611509   10.58391869293703
C         1.33114318838042    0.49921482858731    6.64287801254907
C         1.84040397403579    1.50143558693074    5.61779645796437
C         3.49219635967660    0.76810148925502    8.55599372441184
C         4.12593478247725   -0.47028812241511    7.93558030233460
H        -0.44163482423964    3.64571425936733    7.01283715094655
H        -1.72485389895397    3.34041817630861    8.18332912546172
H        -0.96760018126622    1.99559132552165    7.35143280964627
H        -1.00524148752372    4.74080629091907   13.24277300134050
H        -2.12543104583132    5.65140463584762   11.28901449528844
H        -2.33556185280233    4.05098760954629   10.57265394144278
H        -2.41631830927353    3.72415839790501   12.96456808279783
H        -0.81543237642792    3.15811887073750   12.49794058006388
H        -1.51756789168457    5.65003088467401    8.43982731919645
H         0.15390143665697    6.15464549216923    8.17489387299304
H        -1.73521485997298    7.48285453843784   10.19717716246705
H        -1.37026947066100    8.06985253193287    8.58150889189544
H        -0.09601096095911    8.00611551559150    9.78940829869758
H         1.08719226856947    5.24652389418077   12.26252598389190
H         0.20292293348071    6.67852060166075   11.70319638567154
H         2.93388032464405    5.66932110099929   10.73548347763100
H         2.58994440856116    7.15820785847064   11.59890734996800
H         2.06437460425760    6.96770878659054    9.92246243219840
H        -0.04841528964928   -0.69636542394847    8.98015298040688
H         1.45231326237659   -1.49065972864596    8.50162064955442
H         0.90998227583489   -0.21786921951508   11.24098266839747
H         1.02142982985336   -1.93293713529700   10.87462155246813
H         2.45258410011728   -0.90929433027743   10.75212352642190
H         1.80130100706209   -0.47539470312826    6.47610707963838
H         0.25076570436527    0.35885241675070    6.53296528774586
H         1.30492386607933    2.44384537880858    5.68492823909784
H         1.69634802552687    1.10379058673721    4.61442454565791
H         2.89991153505647    1.70445449613032    5.75708990542989
H         3.91872484147691    1.66786162928736    8.10242124907858
H         3.72824159595442    0.80649520943837    9.62356943159603
H         4.01050895573944   -0.48649357212758    6.85450998616612
H         5.19215715762607   -0.45588064973678    8.15319524374718
H         3.71613114739911   -1.38874364001654    8.35011836043492

