114
CSD_code = NIWROD | q = 0 | S = 0 | Stoichiometry = C46H62BCuN2O2 | MND = 2
Cu        5.81131237614585   11.10081125398745   11.66210456821198
N         8.60968855981086   11.35483259741134   12.47624467671326
N         8.41411352406399    9.69734281761699   11.13330178922260
O         2.60523793539800   12.51247168296720   16.23356350957257
O         4.14282817471560   11.36828933634385   17.44285690621852
B         3.29956626280033   11.34237091812881   16.35513984374441
C         7.71061606372159   10.69092619396840   11.71717892029210
C         9.85235025409863   10.79025977819173   12.36503666931731
H        10.70186070511022   11.17704416968998   12.88903695971193
C         9.72888037457338    9.74267909299505   11.51620175376971
H        10.44904161315913    9.03515388869455   11.16038042963675
C         8.28309371459701   12.45240278664531   13.31980094638537
C         8.07156125106432   12.21203741559906   14.68077354925876
C         7.73657656883913   13.29285379094941   15.48342030399889
H         7.56677632542893   13.13652083624874   16.53634179563446
C         7.61614780810314   14.56311740866654   14.95254174251244
H         7.34824101897127   15.39076237089235   15.59253686078802
C         7.83322951689601   14.77824445166934   13.60554890334972
H         7.73193272604610   15.77405779051418   13.20346676943193
C         8.17410992484589   13.72792135007831   12.76395124126636
C         8.15230408703474   10.81711549257633   15.25456981850729
H         8.73002498026555   10.18535262061481   14.57048725436749
C         6.74135745328232   10.23057694191255   15.36852701890553
H         6.13968960123748   10.78436934007823   16.08400702450093
H         6.79304958943621    9.19673196209050   15.70169696502328
H         6.22800413556799   10.26005922979510   14.40980123578482
C         8.85926166274999   10.78338884535566   16.61075702687284
H         9.80265012481432   11.32524303197345   16.57084178019853
H         9.06454190141396    9.75242910977687   16.88992824162732
H         8.23739323589616   11.21860241244923   17.38774448763760
C         8.40260808790126   13.97261572529549   11.29093743181621
H         8.71167178573415   13.03713581741521   10.81420277645996
C         9.51781517861729   14.99718101460319   11.07112985811017
H         9.23935129759335   15.97037310658727   11.46604987971068
H         9.71710690001838   15.10610644518596   10.00738473778644
H        10.43422504193893   14.67697398276394   11.56330312430725
C         7.10070231153095   14.42384201313124   10.62587297001559
H         6.32145975564759   13.68038892060313   10.78871385263427
H         7.24782169078090   14.54347922538718    9.55489179926572
H         6.76292807258604   15.37161180223936   11.03640515574343
C         7.85689000754017    8.71464457678374   10.26910484339338
C         7.97645460425658    8.88698288621715    8.88759485790368
C         7.42122562096888    7.92074516052080    8.06151073634617
H         7.48475017448762    8.02816638976730    6.99084692479134
C         6.77652149278873    6.82042097473327    8.59589411501202
H         6.34811019919464    6.07900159571651    7.93808199649959
C         6.66887362058136    6.66944438954217    9.96420687147114
H         6.15203917976274    5.81225128070294   10.36586499549360
C         7.20834544034820    7.61275002490905   10.82917052915013
C         8.62705425656910   10.12984379527074    8.32495924862059
H         9.33250202058118   10.52580968069552    9.06376592259019
C         7.54282676107574   11.18640460270614    8.08768318978643
H         6.82552091370776   10.83043279825222    7.35199390850608
H         7.98811307793202   12.10899215014568    7.72198564467160
H         7.00527393209447   11.39819339237144    9.01131292261470
C         9.41308804249768    9.86460681637936    7.04123844059970
H         8.74910899365919    9.65168039289468    6.20792975637902
H        10.09090196803463    9.02353219922069    7.17133955743049
H         9.99992219553838   10.74342969437835    6.78281820854757
C         7.05845584658705    7.45288714336882   12.32313603564030
H         7.62044888876878    8.24343500157566   12.82982352967053
C         5.58669253373637    7.60854315532481   12.71190785118969
H         5.20119746181173    8.56015891632129   12.35055107756370
H         5.47822247705839    7.59347759726108   13.79317619014080
H         4.98531092014119    6.80794908926277   12.28791241312312
C         7.61690111039603    6.11026540746959   12.79963600598979
H         7.58836018117532    6.06355613884808   13.88612084729660
H         8.64956231674975    5.98672728518605   12.47778553532942
H         7.03418967926189    5.28082935471680   12.40809141015617
C         3.87463712214191   11.47456150695731   11.93043485900849
H         3.59936849192803   12.48895811321661   11.61271734316932
H         3.23496653637316   10.76941291280470   11.38256770192752
C         3.64123258808766   11.33390455269967   13.37677606140325
H         3.88583210757109   12.19889885505346   13.98411443875158
C         3.21716560970788   10.22016693468577   14.00260772045629
H         2.96789667323377    9.35934633157648   13.39532959820711
C         3.12126401478238   10.07877948023808   15.43649145599058
C         2.85610877601032    8.90891535000354   16.05450205456314
H         2.79584334482550    8.90321598733733   17.13613970402141
C         2.61809417421517    7.57089996102256   15.42388855774936
H         2.91912064342922    7.57431789714291   14.37690165214879
H         1.55032426909897    7.32660434131569   15.46066321728699
C         3.39587369977020    6.46691639395326   16.16266455582366
H         4.45581701855017    6.72933765697227   16.17379617739348
H         3.04726196560858    6.41917983522751   17.19699979582292
C         3.19692904280696    5.14152564806065   15.49095402471922
C         4.15417560530797    4.62451769009258   14.62739341806931
H         5.07454044184849    5.16730427777608   14.46932883550509
C         3.94501499490861    3.42311057268729   13.97391958913318
H         4.70166502194370    3.03328509716511   13.30708420534925
C         2.77109502516811    2.71819426086410   14.17402217277779
H         2.60608160526743    1.77994992121213   13.66436100046955
C         1.81040534221644    3.22189911561508   15.03473146336589
H         0.89283132671824    2.67495452611047   15.19871353346005
C         2.02294023386333    4.42291773579687   15.68619323498802
H         1.27035758347417    4.80957074581069   16.35900209836275
C         3.09873354916490   13.44929885245879   17.18589506965203
C         3.85788156287541   12.53567693856787   18.21040696479259
C         4.03655846887825   14.40288541816116   16.43242979449941
H         4.86369158974876   13.84998704114827   15.99206119231610
H         4.41830324527126   15.17995207618099   17.08899673092334
H         3.47700969819566   14.86577556079322   15.62259304924072
C         1.93696620560418   14.24769662049206   17.77212460360865
H         1.50130371029755   14.86212940363654   16.98820790537868
H         2.28954881266898   14.89357590804551   18.57243100327000
H         1.16234102543222   13.58908642448748   18.15112683907629
C         5.15329800916556   13.12302130253451   18.76461637776774
H         5.59961556906419   12.40856655133621   19.45265614245976
H         4.94612194315354   14.04602535557909   19.30019784102419
H         5.86397048780135   13.32158646076374   17.96947008273060
C         2.96879574398448   12.09324940653490   19.38024929185212
H         2.04593695164016   11.66051714544905   19.00192046334144
H         2.74281035762132   12.92448482611683   20.04180588833936
H         3.49497430119087   11.32460014445072   19.94238814536854

