83
CSD_code = NIWTIY | q = 0 | S = 0 | Stoichiometry = C29H47ClO2P2RuS | MND = 6
Ru        3.10212425306417    6.17380983865829   21.27515288056212
H         3.90896433152699    4.88670537466892   21.22359269953627
Cl        1.81704384218706    8.14699570388492   21.30719353390923
P         4.69202252374722    7.13842292773739   19.95211207557476
P         1.27167266442619    4.97374266907600   22.00665555385273
S         3.89666268990370    6.55675562068097   23.30528730777397
O         2.19161091752714    5.72994309481631   19.26716847117506
O         3.35096576479243    5.62119814678354   24.27733730713083
C         5.11913733614717    8.95589335956104   19.78201876195932
H         5.97468634277153    9.04135473657512   19.10369948306203
C         5.50378137454619    9.49025536087669   21.15658527184689
H         5.80824177451947   10.53411072940381   21.08995962488984
H         6.32746665105542    8.92034090933593   21.58841603186908
H         4.63983405580205    9.42606916915865   21.81451544063166
C         3.95217176015059    9.75961800360150   19.21713285507607
H         3.06347114460979    9.61889465937127   19.82834203176463
H         3.72040628221075    9.46460101528993   18.19566969045889
H         4.20397089598456   10.81943610257752   19.21874332209775
C         6.35939164687285    6.26182501111448   19.87650630103133
H         6.55127794025137    6.01527785960632   20.92793882120204
C         7.56837989499653    7.02380821866704   19.34364946360490
H         8.44805486694021    6.38670049314735   19.43303500647146
H         7.75992087306062    7.93288637961136   19.90857296150106
H         7.45472782913321    7.27576478761571   18.29229498735889
C         6.18277701220004    4.94347563738625   19.12621421217019
H         6.09687006059074    5.11176814613899   18.05442427265151
H         5.28239757656257    4.43786709482463   19.47580009736653
H         7.03509925854819    4.29058003431577   19.30612063381847
C         4.03147749098737    6.83052397670242   18.27157034298400
C         4.70207788983657    7.27807566918752   17.14039958486504
H         5.62960545445471    7.81697280409757   17.25001324868477
C         4.18754836690448    7.05080144240378   15.88015247421579
H         4.71073291020272    7.40374472463615   15.00447963483303
C         2.99185615376143    6.37227056587229   15.74872634854899
H         2.59308748087158    6.20542744091143   14.76044337451773
C         2.29094715505542    5.90759472938125   16.85416697730264
C         2.81734690819547    6.14306542511000   18.12485204351167
C         1.02828862950438    5.01021728640473   19.19330814902699
C         0.41130965973604    4.71860350360087   17.97598211638352
C         0.98305877662633    5.17454079377321   16.65050970128684
C        -0.02056374617721    6.12903095917635   15.97986289633499
H        -0.19338103209255    6.99348421913714   16.61801299349230
H        -0.97169803062956    5.63206126572456   15.81042595759943
H         0.35866644411058    6.47842200983690   15.02344291657276
C         1.23453777044066    3.94232887116870   15.76342153430504
H         1.63454247152091    4.23531254758979   14.79703730868651
H         0.31367834367987    3.39186473185735   15.59461265256989
H         1.94939805738465    3.27730552215999   16.24453191004747
C         0.46827268574846    4.57075154624325   20.40129635101707
C        -0.72219216616485    3.85491164884644   20.36885591241820
H        -1.17616485355144    3.53138000484206   21.29317102363201
C        -1.34371047121098    3.56445900766712   19.17146832330840
H        -2.27041910504246    3.01122900488233   19.15746378863903
C        -0.77419862297370    3.99523889193050   17.98998408036505
H        -1.26877940996198    3.76896218105491   17.05846357445392
C         1.34244795500158    3.23144187391259   22.68894752976014
H         0.37276322336947    2.77500278373802   22.45109123439039
C         2.43220407709808    2.46023256135963   21.95662992231306
H         3.40515527259874    2.87761712089696   22.20496642737044
H         2.29550272113427    2.52726033720156   20.87679757548081
H         2.41525137574889    1.41018332458087   22.24523048008975
C         1.55454347806060    3.16349930814199   24.19531483584079
H         1.67758181740896    2.12412455649019   24.49843032218414
H         0.70443900840095    3.57459095192359   24.73508305285523
H         2.44533841428716    3.71785875334718   24.47562374661246
C        -0.19253383192106    5.66876863103613   22.95230516279286
H        -0.75849240212638    4.80314184411536   23.32328247453558
C        -1.10660973173307    6.54567764708399   22.09918026490567
H        -1.86727678716628    6.99638181026770   22.73578886457064
H        -1.60793632432829    5.98225541992963   21.31513237806880
H        -0.53532194626326    7.34839287634657   21.63839210806016
C         0.32532958910556    6.48025569326016   24.13771621934681
H         0.74542135019147    7.41550080424024   23.77310293151757
H         1.10295002680292    5.94478253323876   24.67745240245543
H        -0.48929375574525    6.71447389502585   24.82234560178647
C         5.70368471815461    6.41993543610970   23.55979565274951
H         5.89487211729145    6.54533778314474   24.61922867928415
H         6.21144679935066    7.17316782736061   22.97017327704072
H         5.98630191246911    5.42156511468989   23.24361704338053
C         3.68587564916292    8.20137224487560   24.09149107000254
H         3.42528418080909    8.01068079354193   25.12539401006939
H         2.87506990065589    8.71376264752714   23.58322189297968
H         4.60274441671958    8.77095356833230   24.01517051941891

