83
CSD_code = NIWTOE | q = 0 | S = 0 | Stoichiometry = C29H48O2P2RuS | MND = 6
Ru       10.59371341803471    7.00389183248186    1.69275931862019
H        11.47356829696542    7.27304449015332    2.92364200190130
H        11.51788334421161    7.88585321557794    0.82621907921384
S         9.44947809661850    6.57279707350723   -0.15262890799907
P         9.41777647075163    8.67156165938223    2.65013965117917
P        11.83435061867323    5.09169592853277    1.57191321626817
O         9.31955869222213    5.76684504996655    3.06160629614292
O        10.27839593643671    6.02495694828912   -1.21845670660900
C         8.82529528455605    7.83067518024157    4.16890205917057
C         8.72408219134489    6.43415732437798    4.11366741006703
C         8.03124530611098    5.72644478271757    5.09771065559440
C         7.58562067415407    6.41234389899176    6.21727561693814
H         7.07489620281703    5.88658880130301    7.00684427211933
C         7.78671221561393    7.77621813616538    6.33921079055061
H         7.45682737809587    8.28949363900316    7.22997092573263
C         8.36393702537567    8.48548636633576    5.30357775757090
H         8.47881761515410    9.55491520002102    5.38471337181201
C         7.74221001212641    4.26538290019815    4.82218225820523
C         6.63711369138125    4.20031379241884    3.74674278822939
H         5.72432472714814    4.66051467040416    4.12028794673447
H         6.42830904279539    3.16404456905377    3.48808378219976
H         6.93666604868102    4.72354535989549    2.84136791196910
C         7.25785684164925    3.51069571266447    6.05866193464973
H         8.01286698662835    3.52013201893169    6.84155540512008
H         7.02291130082242    2.48053278532701    5.80374337000451
H         6.34497841574578    3.96242167433499    6.43848895419749
C         9.01103361210966    3.68492672931364    4.23346387831523
C         9.73616989062927    4.47884271651540    3.33961684278574
C        10.88993294818446    3.99418342016331    2.71494418762361
C        11.30918802611075    2.70156666229052    3.01148458220597
H        12.20455002859272    2.31634889532717    2.54936090377075
C        10.60781169862862    1.91371509579626    3.90069249999944
H        10.94729095866008    0.91360825446503    4.12470299662397
C         9.46519598684450    2.40495240950226    4.50738255402203
H         8.92767341149421    1.77550072373759    5.19681751337430
C         7.75813501308351    9.40050502309515    2.08059162151746
H         7.94800092910362    9.68677259411725    1.03809586601202
C         7.20403067557044   10.62094613237104    2.80786533350635
H         6.23356869862301   10.87269703915080    2.37887564069834
H         7.84829445741636   11.48868242162008    2.69750410426709
H         7.05438689519816   10.41610363861537    3.86511271768996
C         6.72226081369975    8.27774254435948    2.11116533384484
H         6.34161064047939    8.14201052162993    3.12300178872388
H         7.16940427191599    7.33450594655704    1.79533084471018
H         5.87840117243021    8.49896323549843    1.45737267470034
C        10.27849331936970   10.19810361789587    3.27759559193690
H         9.57126257363677   10.80018961283868    3.85811318400130
C        11.46542955009918    9.83989924140796    4.16069532365285
H        12.19623560839652    9.28476669416393    3.57660582997956
H        11.15518470874277    9.22338531969345    5.00356925948207
H        11.93301669406547   10.74588266548668    4.54363095587932
C        10.74347600413459   10.97086513991953    2.04639750059486
H        11.32865297078732   11.84190240517937    2.33644516646106
H         9.90009078856416   11.30562819371304    1.44412065325770
H        11.36422669675330   10.31258999365027    1.43708843265713
C        12.23425250335992    3.84339461351832    0.22375267382144
H        12.87273163443836    3.07747731829658    0.68501657969271
C        13.00981016740207    4.52741809969598   -0.89618746122309
H        13.14194297864298    3.84041154596294   -1.73134556699490
H        13.99307974282047    4.84677031246908   -0.55995825694647
H        12.45204671031509    5.39466355217924   -1.24456887298567
C        10.98650722363231    3.17006530595070   -0.33700519834628
H        10.41392814224504    3.89388511934623   -0.90962344921417
H        10.36300317699777    2.75122677747097    0.45400540680061
H        11.27452896594819    2.35952775816995   -1.00590795573377
C        13.50299577570147    5.12508418915195    2.43648938573468
H        14.05178209657844    4.21449899688202    2.16225674388279
C        13.35507452182937    5.18244088031788    3.95409510253055
H        14.32434582483971    5.37024070192515    4.41319471325731
H        12.95840546584072    4.25357312499610    4.35943990427397
H        12.68525903962095    5.99862680850493    4.22724309910051
C        14.26959348414605    6.35025875033487    1.94883423482579
H        13.69690730003563    7.24521652339973    2.18641328776121
H        14.40919213228407    6.32847403507956    0.87192712092249
H        15.24569174262579    6.40556033179910    2.42892988000436
C         8.03756521819845    5.37290209399356   -0.07285340686417
H         7.82552335086444    5.06575304519424   -1.09038881472049
H         7.16214966642154    5.82698539739999    0.37709353650129
H         8.35953439714183    4.51274592626965    0.50864595395584
C         8.50215934685567    7.87711956354237   -1.02975085537309
H         9.14286239314259    8.75301524093447   -1.06362155273099
H         7.57030725486981    8.09568091783852   -0.52514577754654
H         8.32551486590856    7.50774317119279   -2.03370539623860

