98
CSD_code = NIWVAS | q = 0 | S = 0 | Stoichiometry = C42H50Cl2OOsP2 | MND = 6
Os       10.96767352040059   11.02175616694652    9.62111687952035
Cl       10.43675549859482   12.61793827667031    7.94485081773182
Cl       12.15569086715136    9.71213859985385   11.17039975332514
P        11.50081149803841    9.38909433729586    8.05425440631047
P        11.13078248922440   12.94410383204724   10.93555659317319
O        13.08920587607232   11.73477399917294    9.01849215625047
C         9.20957769989171   10.43485033824605   10.11866482429203
C         8.07429814379324   10.07608859695208   10.47628132151574
C         6.83965748094269    9.72005096161006   10.91823699278600
C         6.31663979875557   10.35325794340031   12.11948709597721
C         4.94875351537566   10.58467470344226   12.28932309683753
H         4.25659730079906   10.28842214327373   11.51432924778398
C         4.48342905946909   11.22074112119621   13.42360180414825
H         3.42422764539792   11.39952264316195   13.54080369799559
C         5.36688685451585   11.63495676538366   14.40800761101666
H         4.99734772678592   12.12907384278309   15.29454268509297
C         6.72669057170758   11.41387604026353   14.24839889417319
H         7.41855304272788   11.73169317531816   15.01544063841715
C         7.19875445483860   10.78313255761552   13.11585879315735
H         8.25264743302670   10.58984643893228   12.98527129380240
C         6.06165863099563    8.72820554417417   10.19387784479025
C         5.18376849912609    7.86451318033920   10.85548626289736
H         5.08282744044740    7.92569395720536   11.92953739712557
C         4.47374406088469    6.91376995276241   10.14897238343542
H         3.80189402293242    6.24858790406676   10.67225663121475
C         4.62161085041574    6.80599395053415    8.77500779446308
H         4.06120037976164    6.06314653189507    8.22657129935079
C         5.49330649837725    7.65431768000370    8.10913012304539
H         5.61047891929340    7.57517074094010    7.03791366405317
C         6.20859958593312    8.60380637101446    8.80927067368390
H         6.87560342729210    9.28139251310558    8.29971828526547
C        13.79191045234474   11.03346738226378    8.07839113331859
C        13.20362225297001    9.86616952888710    7.56387558764437
C        13.89029662866759    9.13111172216314    6.60600218619433
H        13.41655983436113    8.27440068046137    6.15563428172808
C        15.16081046532648    9.49895332274592    6.21176578239272
H        15.70138182216349    8.90453797674482    5.49096512306790
C        15.72607058438480   10.64897032479683    6.72599588450264
H        16.71520461010456   10.93306009033305    6.40280790832747
C        15.04456574351851   11.45162804380896    7.63114203030023
C        15.66219437998494   12.75500997217607    8.09424119421475
C        16.90113303675116   12.44518246764966    8.95263064155138
H        17.36431567625552   13.36491426504125    9.30128658373385
H        17.63398274796555   11.88410529917829    8.37828837454510
H        16.61814316248963   11.85229689942000    9.82098055851185
C        16.05536618877626   13.58336315902088    6.85827692054362
H        15.16898861118116   13.81808658404920    6.27154874534188
H        16.75078811047275   13.03848720955944    6.22701503641766
H        16.53281190347971   14.51459945942188    7.14781431487960
C        14.68162343256273   13.54925521449123    8.93252470656434
C        14.99507503133647   14.84633802710272    9.31771358018176
H        15.93312631072525   15.28095262346616    9.01064541298606
C        14.13322441617603   15.59814058345279   10.09076787044464
H        14.39105052449667   16.61039589137203   10.36244635642000
C        12.95050960588817   15.03872441817364   10.53046442959284
H        12.28402215185815   15.61711012057290   11.14841438390343
C        12.61177406803932   13.73648237457702   10.19302273572773
C        13.47787009138090   12.99944226798802    9.36849262938143
C        11.68650808496071    7.64253195148198    8.71344364406504
H        12.38999319562124    7.77056770086305    9.54553391355505
C        10.34296455593871    7.20675879593536    9.30162183136759
H         9.65095868323318    6.90604844661304    8.51782614366123
H         9.89419395117900    8.01836793369861    9.87645217166324
H        10.48863402256926    6.35741814753333    9.96645717919883
C        12.23522833136946    6.55592317136649    7.79491368284634
H        12.15735505687175    5.60076841908695    8.31310110700897
H        13.28422581979683    6.71463182116792    7.56064640214283
H        11.66530056320904    6.47245082721153    6.87134789018905
C        10.65665961740986    9.22669757921429    6.39572424998857
H        10.91063173932396    8.24611735332619    5.97515986351471
C         9.15323495163367    9.30224889839149    6.64531570925153
H         8.91231382896528   10.26191239431036    7.10222899337928
H         8.82667647053395    8.51158064101990    7.31539712074346
H         8.60700129011870    9.21415526781536    5.70726012852130
C        11.07482218528412   10.32003217920488    5.41689535606291
H        10.48787829799040   10.23193237799221    4.50362974658690
H        12.12784998621798   10.25175028678699    5.15156987730602
H        10.88480138752732   11.30037936243175    5.84779169270107
C         9.79764417465467   14.26551067673279   10.81341115474153
H        10.04830703267799   14.82094555739630    9.90050362607097
C         8.44734994598691   13.57724354591448   10.60490613497301
H         8.17777860207156   12.97599815942921   11.47120724667704
H         8.47495404476817   12.92187028239875    9.73690583246927
H         7.66976065428644   14.32273057472742   10.44720129024718
C         9.66651147473426   15.24529025727896   11.97766581886173
H         8.89158380927759   15.97021686747235   11.73039581015016
H        10.57742397374786   15.80250915977010   12.18205211182634
H         9.36021463100650   14.73199053038132   12.88626905235326
C        11.66135681619174   12.96477347687260   12.72769796406376
H        11.60303164533301   14.00194253694206   13.07633903674240
C        13.09342541665146   12.47420200898816   12.91903885687212
H        13.32996230961478   12.45650266758326   13.98212284278875
H        13.80954436692028   13.12877322624431   12.42340907499634
H        13.20704849483804   11.46436419011589   12.53212378583688
C        10.68227815025669   12.09832982268575   13.51125192304798
H        10.73401749078605   11.07325019626517   13.14762726485640
H         9.66211554757279   12.45775829020449   13.39046711546197
H        10.93036476249689   12.10334769775330   14.57167199806286

