72
CSD_code = NIWVIY | q = 1 | S = 0 | Stoichiometry = C31H37NOPPd(1+) | MND = 4
Pd        3.01315013827586   16.76942924589320   11.23266570650346
P         3.80372136644236   17.39858500785671    9.24830325982425
O         2.96712019565368   14.65450345998809   10.47182735901956
C         2.88106682521253   18.59788880187301   11.99326498725057
C         2.81658315717586   19.80682439252482   11.28825340484192
C         2.66183554013948   20.98505037777676   11.96713174078874
C         2.57707154137433   21.00774913429566   13.37353687394480
C         2.43218876428929   22.22302950828676   14.07589005290219
C         2.36065315408562   22.24043393475088   15.43943654157424
C         2.43564863035974   21.03921916792138   16.16011255013648
C         2.57381188322363   19.84409878335453   15.51129260253735
C         2.64278819970430   19.78709141122856   14.10151878777799
C         2.77833940061092   18.58026387858466   13.36888496986074
C         2.86143356408526   17.20827177195857   14.00682191127078
N         2.16132517340581   16.26863946505633   13.09324192603932
C         4.34602546777699   16.84093338249478   14.13128074106290
C         2.35552583110428   14.87311911437579   13.48924976744210
C         0.72239268027798   16.55447423019180   13.07795423125326
C         5.51205609023684   19.38397378297313    8.08954866183301
C         6.61778663337952   20.21099523049401    8.18333185719218
C         7.39697952358393   20.21650608859411    9.32937141465585
C         7.07135184724483   19.39692060898076   10.39938498423740
C         5.96685675426462   18.57190707594484   10.31523858689427
C         5.18920689034653   18.55348818613659    9.15693347380302
C         4.14959548916969   15.98998094836929    8.08121303276312
C         4.15692183009385   16.68148189245021    6.73726209231769
C         3.18886709787682   17.60340669146477    6.68610540358588
C         2.45624619145466   17.67195735526616    8.00383939442612
C         1.71633945529094   16.33096863424678    8.24227088967947
C         2.79379876654482   15.22075881179602    8.14613970030259
C         5.10075187319112   16.23308991459420    5.67908833294619
C         2.74773799200918   18.45087460075429    5.54496204211329
C         2.78793615570730   14.27668331933159    9.32812697563051
C         2.58625860414431   12.82310333136844    9.00949026401815
C         2.54788004110058   11.94075435343361   10.25011793398858
H         2.89432623145288   19.81379490831453   10.20479553463517
H         2.60886977476627   21.92097891107523   11.43050585834181
H         2.38092707813449   23.14138915411462   13.50993698467487
H         2.24948638531188   23.17291934617581   15.97088211386824
H         2.38514331154635   21.06463811165375   17.23813099867934
H         2.63956576301022   18.93598497516254   16.09021900687063
H         2.38410336921210   17.17163717227362   14.99581650178525
H         4.50408577705258   15.97268170937870   14.76630161889671
H         4.88505937669653   17.68084870709473   14.56419077873307
H         4.75909242569826   16.64428202226113   13.12568870761290
H         1.71333580143524   14.23245905819311   12.88336300912554
H         2.09507500785361   14.72518738386987   14.54436583055654
H         3.38916261550868   14.56433322078127   13.32753699639538
H         0.54509046452882   17.61076773337933   12.86669304386849
H         0.26770009432880   16.31312887494101   14.04709410223257
H         0.23435948210915   15.95148459061168   12.30681452890038
H         4.90811826024675   19.38718554193911    7.19633466433593
H         6.87075795801517   20.85792844180933    7.35723486505743
H         8.25600098988453   20.86652344472462    9.39175630224576
H         7.67382326789971   19.40904822219342   11.29459275902528
H         5.67835273937530   17.93265709861700   11.15087117189998
H         5.01652868877679   15.35917546994014    8.27911268319960
H         1.80459904272158   18.53549930262351    8.13090876731799
H         1.26000027068911   16.34912155736540    9.24926331954350
H         0.92545765175727   16.17668252017881    7.50859577597556
H         2.66566364317949   14.64474912191063    7.22604520595542
H         4.93815793580894   15.18115856191896    5.44415180031896
H         4.97892886690619   16.81098473755557    4.76837419813088
H         6.12810272112983   16.33985599472719    6.02683471865267
H         1.76911600824169   18.12238859035648    5.19403427197804
H         2.64993769365027   19.49030574579225    5.85621644668272
H         3.44492864122892   18.39638238133962    4.71427249024777
H         3.39984923185019   12.51415756300904    8.34620020155726
H         1.66075204502443   12.72497338223858    8.43511431703503
H         2.44415187887588   10.89803311054601    9.96610083925398
H         1.70617836695150   12.21027438921774   10.88340572047573
H         3.46235839034014   12.05484304817622   10.82675141144300

