73
CSD_code = NIWVEU | q = 0 | S = 0 | Stoichiometry = C31H37ClNOPPd | MND = 4
Pd       10.55829888180090   -0.13709989095440   -6.49722791288236
Cl       11.72909950923028   -2.16738216021430   -6.56663583093861
P        11.58560428147636    0.30958943671082   -4.60325423678093
O         9.82881306529642   -2.31088697150242   -1.18835999123207
C         9.59708333036172    1.60128513827207   -6.61093170431300
C         9.96763686796791    2.83693355225033   -6.05047188735072
C         9.25748517968190    3.97291146252973   -6.32488616406452
C         8.12531252840001    3.93466778271885   -7.16316623801344
C         7.37217334334301    5.09658412193708   -7.43007936406570
C         6.27199962598803    5.05206625994027   -8.23770629074101
C         5.87642467294507    3.83470449779498   -8.81075761835585
C         6.58630355664162    2.69095838461134   -8.57508265783489
C         7.73505693026785    2.69962973027282   -7.75212585001838
C         8.51680759375034    1.55108921474458   -7.47310998486112
C         8.22405379219296    0.18429614646720   -8.05896491668513
N         9.52524102798459   -0.48012776475802   -8.30738292893887
C         7.40276498005645   -0.60041494892883   -7.02706539377913
C         9.35256236540206   -1.87198452903277   -8.71871197942218
C        10.26817943445937    0.22004725507043   -9.35863917418742
C        13.98284955919391    1.73888827139820   -3.92543027391703
C        15.14506882370054    2.38118423078188   -4.31449878152923
C        15.47569973552000    2.48487751092957   -5.65621423576941
C        14.63948471146014    1.94773349944592   -6.62223256220698
C        13.47552199108846    1.30712228940777   -6.24154023290805
C        13.14243662343110    1.19272423182029   -4.89045744870736
C        11.83145186155598   -1.14115568899940   -3.48098272837827
C        12.25582615714764   -0.52046892599084   -2.18112673803780
C        11.60654128300695    0.63025393204133   -1.97734907816307
C        10.65728447231036    0.91005706351037   -3.11193688789157
C         9.58088310275210   -0.20078140362780   -3.09499415258570
C        10.31989912504969   -1.52201119567210   -3.39053603183350
C        13.20743225860729   -1.23523808891220   -1.28531676562392
C        11.63515641180729    1.52842744499184   -0.78870601014593
C        10.15103287941545   -2.57822365741446   -2.32005774589636
C        10.43546500296983   -3.98461363095743   -2.79502116642044
C        10.75884315601857   -4.93443515590247   -1.64934218672180
H        10.83688819722496    2.88962096957621   -5.39966455012073
H         9.55146755478958    4.92205117457074   -5.89732635339281
H         7.68460886733654    6.02691248024656   -6.97658746943383
H         5.69952954971511    5.94602664432159   -8.43723018796757
H         4.99953985073507    3.80612914513484   -9.44163838842610
H         6.25199366149632    1.76524554778698   -9.01911045521340
H         7.66912339244561    0.24399919007137   -9.00823936877944
H         6.60191244940752    0.03267078605528   -6.65002943378312
H         8.05770608973127   -0.87428096115614   -6.18309554237462
H         6.95907425177976   -1.49929661334739   -7.44920018302367
H         8.95316029552246   -2.47010572937315   -7.90032822749019
H        10.32371921005987   -2.29142181070928   -8.98241094500670
H         8.68475655838822   -1.94287221458122   -9.58844801958816
H        10.34456334802549    1.28609728632748   -9.12979003490700
H         9.76827717984019    0.10727569204346  -10.33160800099473
H        11.27436975387072   -0.20418620565868   -9.43214229275852
H        13.73022542214344    1.65995722118046   -2.87961430792339
H        15.79813829074986    2.80424318383857   -3.56516315399970
H        16.38595731498394    2.98682874944780   -5.94930381847479
H        14.89710424090598    2.03133836943250   -7.66778517177929
H        12.80001467607653    0.87690357307185   -6.99402172157754
H        12.45628596369133   -1.95136033962103   -3.85060028783616
H        10.23503611699730    1.91308360504119   -3.13104826065267
H         9.09747244304332   -0.25073748281994   -2.11727741893525
H         8.82364714847535    0.00242543434349   -3.86052251645542
H        10.02506176104677   -1.93658417150173   -4.36807896488422
H        14.02640519404646   -1.65868990809834   -1.86535098244077
H        12.69242534358074   -2.05177270762309   -0.77797347160989
H        13.61682926358852   -0.57084448163640   -0.52870972361160
H        10.70357909939411    1.42985719512879   -0.23100041351925
H        11.72973168688482    2.56922332665704   -1.09885328165594
H        12.45704095647188    1.27986576661571   -0.12264474830820
H        11.23597561139748   -3.96837543325306   -3.53591791044860
H         9.53071306403571   -4.32147912541164   -3.31108679750261
H        10.84106314077225   -5.95614201098005   -2.01068237635023
H         9.97700252725801   -4.88719853465157   -0.89543122385264
H        11.69962240178515   -4.65541505536064   -1.18038084359474

