55
CSD_code = NIXCUU | q = 0 | S = 0 | Stoichiometry = C19H29Cl2N4V | MND = 4
V         5.12119946143914   -1.19628718290719    3.92465266878950
Cl        5.30938749936924   -2.17338609743318    2.08487555435891
Cl        3.78874679381769   -2.26574838363416    5.11169489409930
N         6.58797478785146   -1.15728758194036    4.59358688217540
N         4.67953297643808    0.41657953522807    3.79104634688311
N         4.22934059551281    2.54557467561923    4.76396379307239
N         4.21836304869931    2.39048965099968    2.55384966249335
C         7.79208787157894   -1.16802908716902    5.16321961456159
C         7.96786532911557   -1.72497879109395    6.45339954558177
C         9.22927534771901   -1.73129872647927    7.01891966244677
C        10.31813538254025   -1.20291405541855    6.34448466393221
C        10.14887766799743   -0.65061550747699    5.08426067390705
C         8.90589199653836   -0.61902235531144    4.48244328089380
C         6.77737909367011   -2.29808909482287    7.15580111101932
C         8.68613873210974   -0.01947886352834    3.12828757655399
C         4.40577266592533    1.66591771585910    3.71383957781010
C         3.92553361061520    3.68792435588291    2.89874561926353
C         3.92888386968567    3.78119903093234    4.24210785842947
C         4.37756669341381    2.21214207305093    6.18303348663925
C         3.35907238250190    1.13015279379169    6.54996858954613
C         4.12203346104943    3.45184617991907    7.04322577984065
C         5.80822155096402    1.71932469170080    6.42178322467507
C         4.29317460242229    1.83987245109346    1.19757103361442
C         4.00516170783159    2.93506554912423    0.16872375084874
C         5.70425510884001    1.29217761201206    0.96686222621475
C         3.24299473513343    0.73369673030413    1.05756902309416
H         5.98344652763462   -1.55059736896571    7.22728655035851
H         6.37767196939314   -3.13867967723878    6.58333509739014
H         7.04080353588734   -2.64350842633299    8.15251303933737
H         9.36414222362186   -2.16000167312379    8.00212042531849
H        11.29705307215379   -1.22109779882694    6.79966604927285
H        10.99976631785451   -0.23683587918461    4.56144113242588
H         9.62069957377811    0.33504457998557    2.70125821420304
H         7.98270302988810    0.81286909867098    3.20631146682485
H         8.24197483755420   -0.76020083563125    2.46015940442946
H         3.73674233297196    4.45443383620583    2.17934461491736
H         3.73577602439385    4.63922093906256    4.84793969575344
H         4.83270931408117    4.24301123134334    6.81709664400748
H         3.10893787948536    3.82404656553048    6.91019934531437
H         4.24506672457869    3.17983349188135    8.08793920192368
H         2.34817181334721    1.47497881957807    6.34024716222043
H         3.43367872816697    0.89618089966735    7.60831447917142
H         3.55065718172303    0.22245463895292    5.97985777741899
H         6.00531856833689    0.83271166089141    5.81840067405114
H         6.52393553433896    2.49415840169008    6.15472665884152
H         5.94328853495275    1.46923325566203    7.47020802239817
H         4.07091323844193    2.50262923530802   -0.82603799636856
H         4.73448304658097    3.73899074864928    0.23394071018965
H         3.00431889216380    3.34212673211111    0.29277639954496
H         6.43873457819433    2.08861447741168    1.07157373570058
H         5.92805895744733    0.50642296812233    1.68811571420839
H         5.78025407924136    0.87646427873952   -0.03395473601922
H         2.24522122239594    1.13622244809567    1.22486666792775
H         3.28671437825674    0.30721601063052    0.05927463563890
H         3.42849091036678   -0.06126997717964    1.77956311284600

