89
CSD_code = NIXDEF | q = 0 | S = 0 | Stoichiometry = C35H47Cl2N4V | MND = 4
V         9.28170581289317    1.86114978747380    7.85530533582289
Cl       11.10243887032258    1.68336458396837    6.85703721610450
Cl        7.94664385958307    0.47568033412165    7.07494406884848
N         8.67837294746309    3.32721972524081    7.57369483713243
N         9.45821068575978    1.80625568388581    9.52451871805243
N        11.09061894884092    1.45871269861826   11.16291357338168
N         8.95129390050298    1.36002949753537   11.77539289940803
C         8.00371304187938    4.44763188250636    7.31323859072739
C         8.62878867983465    5.56097622142061    6.70544522056163
C         7.88821919367329    6.70519149314205    6.46494690587131
C         6.54990115962466    6.77821626122331    6.81020161169764
C         5.93020285692513    5.68476657180847    7.39541538754188
C         6.62677513009911    4.51914682504979    7.64956967950288
C        10.07942419035694    5.49113346606752    6.33525180216701
C         5.95822172357497    3.32066559809100    8.24797218772018
C         9.79938311424612    1.55784507583656   10.71996895173428
C        11.15138257487838    1.12734637367790   12.57307020545002
C         9.67805298624673    1.16055134767731   13.01515334785099
C        12.16141159616250    1.19712332920132   10.26218165173101
C        12.99310698365295    2.25660306096987    9.89374177945533
C        14.02520934018726    2.00549258387256    9.00078349358464
C        14.22330947457217    0.73683711714169    8.49111457204409
C        13.38429944446816   -0.29821025332217    8.85474169744292
C        12.33561855832027   -0.08856028690962    9.74109425271887
C        12.72473435991267    3.65291219647350   10.40002964711663
C        12.07384997058200    4.46458851418641    9.27681974084289
C        13.99030315404342    4.33856749915166   10.91703226774876
C        11.40189714971191   -1.22655597650185   10.08872452382649
C        10.62410387057509   -1.66592597539408    8.84617652853515
C        12.16808845549345   -2.40242605284956   10.70073863913905
C         7.60330019505467    1.81341066772833   11.75275198921736
C         7.32610648569520    3.18019822694708   11.85154598170421
C         5.99690529384194    3.58106582159946   11.81866185871162
C         4.97851567712373    2.65521935135519   11.69845371985003
C         5.27049094438460    1.30885890824473   11.59859832183776
C         6.58618766793574    0.86657277005665   11.62042960053890
C         8.42297556445842    4.21146261861383   11.97658467774569
C         8.50290328483459    5.04659155779434   10.69714575228855
C         8.21115986706159    5.10094839358216   13.20493481397612
C         6.90599310129343   -0.60214376756857   11.48243280713088
C         6.47437945519946   -1.10289268515237   10.10351712559407
C         6.24922779861898   -1.41751246154874   12.59855662738107
H         8.36946525389041    7.55215346843178    5.99637819317667
H         5.98823092664488    7.68005954977579    6.61731793777623
H         4.88188168438466    5.73758584423457    7.65431508351782
H        10.26954923814947    6.05637936583564    5.42511145534640
H        10.38602929165712    4.45450712549793    6.19012000379735
H        10.68908409478748    5.91566194903511    7.13348848446103
H         5.76259912189204    2.58157223173339    7.46828228634291
H         5.01325029428161    3.59292490345692    8.71172967795054
H         6.60853192716154    2.84905957809925    8.98915109773264
H        11.76100729867357    1.86461529613590   13.10794115634487
H        11.60488290312927    0.14148339748208   12.72693846838207
H         9.36642399132048    0.22276311107027   13.48898319243293
H         9.47846121908210    1.97636291570349   13.71920040027392
H        14.67116598034075    2.81007343611215    8.68586237900153
H        15.02548772351297    0.55701338516462    7.79055552192110
H        13.53822455001781   -1.27861499552039    8.42962875573190
H        12.00937518703559    3.59206888785181   11.22559385201896
H        11.82226213290628    5.46251332527884    9.63027893695459
H        11.16276297358126    3.96446779645092    8.93676578144978
H        12.75401613694189    4.55278044866763    8.43256020480203
H        14.48861722599704    3.71679865112176   11.65820915466921
H        13.73326009337894    5.28922772041765   11.37934187968229
H        14.68904048828938    4.53688918237197   10.10911190440583
H        10.66716638993314   -0.88321428757787   10.82384794073336
H        11.29620046701082   -2.03430144504137    8.07431399226089
H        10.06073725936429   -0.82154792281921    8.44251437580902
H         9.92130095085668   -2.45752381634299    9.10071600826452
H        12.74825404692460   -2.07746313257576   11.56306085597111
H        12.85141074812961   -2.84094210431829    9.97843053633948
H        11.47266722789871   -3.17507636969050   11.02258862923213
H         5.75466559191761    4.63047026431940   11.88082956922337
H         3.95054329458225    2.98599805973881   11.67673252317133
H         4.46695669297520    0.59623305397946   11.49514519077558
H         9.38531382664371    3.70522987205160   12.09018043396912
H         7.55869420685752    5.54567313326506   10.49565893232347
H         8.74225022949923    4.40005634270118    9.85224776064007
H         9.27985875123709    5.80160288295238   10.79209045068300
H         7.33018278272805    5.72546949283774   13.08758565947732
H         9.07089706480782    5.75279147666446   13.34387436464166
H         8.08530031022555    4.49768557102021   14.10242715590456
H         7.99025734758994   -0.72911110366646   11.55702832141554
H         6.75546307158650   -2.14638585185161    9.97679908443869
H         6.95776987368836   -0.51255928385498    9.32649246265601
H         5.39772676533656   -1.01971173765565    9.97824714256714
H         5.16580593699630   -1.37612319727359   12.52434984365886
H         6.53935056670661   -1.03413376452842   13.57514493427039
H         6.55458948956011   -2.45947129174274   12.53039541365341

