74
CSD_code = NIXFIM | q = 0 | S = 0 | Stoichiometry = C31H32F4IrN3O2S | MND = 8
Ir        5.01067343107054   15.02701091029507    3.25839224311830
S         2.28211617210014   15.15488602450093    4.73191698256169
F         1.61381789568902   16.21162039804914    7.18158716570994
F         2.90253327277876   16.25064872734061    9.59275502986912
F         5.42116484371009   15.14966504956592    9.73160294980179
F         6.60496721750819   14.12931066188355    7.65725997449282
O         2.04441994480700   16.54654194818577    4.44906262120326
O         1.16457102310880   14.33817111447883    5.10586042622659
N         4.94477761721873   12.98079318868398    2.32926118025758
H         5.55018663222066   12.83391764351875    1.52380782807687
H         5.20207968587088   12.29436019872007    3.03714798113504
N         3.03711020125355   14.51603759756963    3.45042766240021
N         5.25457447617332   14.03018037013823    5.05870021776376
C         5.55582756331254   16.33385455118505    1.51963566961532
C         4.68307712435758   17.08485824227361    2.33295582468301
C         5.26995962583912   17.16956669778524    3.64822995344520
C         6.59349342011585   16.59973131760395    3.58135848889521
C         6.75543788774594   16.03518035108051    2.29528394773084
C         5.40524538831017   16.09492386745598    0.04986865396537
H         5.82516029230537   16.93464659116236   -0.50639130535456
H         4.35680767325730   15.99981140270443   -0.22121413106475
H         5.92579979794698   15.19252458127140   -0.26386764422252
C         3.40424749447488   17.73728350416342    1.94698245548101
H         3.07305887869376   17.41859603316225    0.96270973982917
H         3.53471467863338   18.81983706478439    1.93925662325422
H         2.63786494380024   17.49628240335519    2.68335888521509
C         4.73890748006267   18.01778622236844    4.75249602085713
H         5.23369132818402   17.79747658354595    5.69512221562260
H         3.66893977758406   17.84977087047402    4.86409712306764
H         4.89590417250422   19.07110214311282    4.51504738384849
C         7.63734723457702   16.73685685732169    4.64180149382507
H         8.47249082654811   16.06386835490201    4.46678009561863
H         7.22632017375117   16.53831455344407    5.62923051078221
H         8.01773047774699   17.75937411724450    4.64089669156584
C         8.02842835762963   15.47882632340743    1.73399352066487
H         8.57628708726509   14.91170776162578    2.48348082346907
H         8.66730538339623   16.29644188191720    1.39632638263424
H         7.83674897092206   14.83104062566613    0.88181916270560
C         3.54592704945150   12.72019201354803    1.94920147961079
H         3.30169042400148   13.37962164165260    1.11104177179011
C         2.66567609253751   13.15806863211246    3.14207310841642
H         2.84706433962726   12.48288444734674    3.99424887289953
C         3.27348554322419   11.28768083283183    1.57433101606904
C         3.73174219944061   10.23549596026139    2.35890495060253
H         4.31313592129528   10.42910487511461    3.25036312461675
C         3.43078693721060    8.92690780130924    2.02490747007744
H         3.79244489354116    8.11901010347139    2.64356151846025
C         2.66032843182113    8.65361653104433    0.90770497369242
H         2.42230439771504    7.63243317702576    0.65133983319537
C         2.19024663806609    9.69573547166661    0.12713059566016
H         1.58104147988745    9.49067864407696   -0.74009573961339
C         2.49697326126273   11.00334743775848    0.45778705096790
H         2.12012785920376   11.81551775709387   -0.14609796833243
C         1.21579074824923   13.06453176864930    2.72942299456429
C         0.48009403235935   11.91830200481864    2.98908919587326
H         0.92913896813624   11.10511504490885    3.54062813511540
C        -0.82996893656900   11.81859305611756    2.55551765514815
H        -1.39853510125442   10.92484245040889    2.76713488922926
C        -1.41381740309553   12.86347672866486    1.86105852572058
H        -2.43914995995658   12.78777446683422    1.52972562936391
C        -0.68320839131126   14.01137352530104    1.60413602960174
H        -1.13913571020689   14.83419626170447    1.07306147366997
C         0.62847795553802   14.10910435230270    2.03012196144958
H         1.20245832388631   15.00613495688949    1.85545405646064
C         3.42029749544519   15.12933186426176    6.15275316812197
C         2.83711087381390   15.68094309187474    7.26999094332894
C         3.47765487394372   15.70809861785102    8.50482919385454
C         4.74553214047716   15.14847171114801    8.57134615647066
C         5.34773717421156   14.60792913822940    7.44972851008977
C         4.72125450393637   14.56619124103723    6.17136685515434
C         6.53262322132978   13.34442505860029    5.17371570093696
H         6.46456146635238   12.53397716428281    5.90391750619512
H         7.34753030817532   14.00751924537127    5.47234327661919
H         6.80078949581353   12.90866618843183    4.21231523616285

