71
CSD_code = NIXFEI | q = 1 | S = 0 | Stoichiometry = C30H30F4N3O2RuS(1+) | MND = 9
Ru       -3.88753497823187    5.41439194708898   14.54060303432847
S        -2.24775674206009    2.85936776519263   14.03263571962305
F        -1.76139534517464    0.72339840884095   15.87486043630745
F        -1.64937211997949    0.66029477733506   18.58652299886178
F        -1.86129940938339    2.99472760170793   19.99487522454961
F        -2.11352371517799    5.36507134277271   18.64833391949416
O        -1.05810917830321    2.29138130089190   13.50015316388707
O        -3.48517885447291    2.14310062460590   14.03397003138744
N        -2.89241379361973    6.96439110881505   13.40596775341231
H        -3.58455727724003    7.58617171655553   12.98151640676103
H        -2.28178530376473    7.56802187989626   13.96754750938092
N        -2.53012749909261    4.33652465034045   13.46926010521825
N        -2.16350176437238    5.50468956240327   15.92627381690874
H        -1.31283985824514    5.68520305951415   15.38136900725516
H        -2.24866366374439    6.23713450011291   16.63941839529921
C        -5.40810315976894    4.90140550261101   16.27013650563239
C        -5.62671031106318    6.22210322611662   15.80080520801941
H        -5.71837290652081    7.03486353932619   16.51344270046536
C        -5.87492927777279    6.45485144959588   14.43560871297669
H        -6.14355838178438    7.45738062755679   14.10969210649296
C        -5.91114574789904    5.38577688161573   13.49031723448432
C        -5.66217956823539    4.08433201298598   13.96914748041131
H        -5.70646413919322    3.23261896582506   13.30415262917812
C        -5.40420816855984    3.84878616955263   15.33513785417873
H        -5.28819503552085    2.82569478707600   15.67019536190772
C        -5.32114092267932    4.62650306985980   17.73787645888806
H        -4.78245952703271    5.40757964922362   18.27085599867566
H        -4.85872068647094    3.66222196214085   17.93514093629952
H        -6.33386113352964    4.59838283625776   18.14456993348764
C        -6.34881026028955    5.64590597752676   12.06877790847481
H        -6.13321095795827    6.69405529192148   11.82632217340144
C        -7.86696981735737    5.44044663586928   11.98434703481044
H        -8.20758313524092    5.63412929712367   10.97121589292702
H        -8.12643017204573    4.41796312918995   12.24681514025985
H        -8.38935567391728    6.11444383436688   12.65932197998765
C        -5.62192526824487    4.75021999383185   11.06516860333457
H        -5.74693301305446    5.14216658749010   10.05940867475301
H        -4.55932241482480    4.70285879543681   11.29765672711175
H        -6.02256280194182    3.74067254341187   11.08107435303889
C        -2.07467184183055    6.37559308638991   12.31474507479640
H        -2.75835149615256    6.10964804334846   11.50245934829030
C        -1.45483892364519    5.04793908564725   12.82373023195615
H        -0.62169592588965    5.27644551502688   13.51927301303849
C        -1.00893932995704    7.31171709814517   11.80486546367960
C        -0.15789596779651    7.97639776909117   12.68127945379689
H        -0.25731340965674    7.85025808764881   13.75334179887591
C         0.84357111113507    8.79963323048963   12.19781066952240
H         1.49613499083315    9.31189475434246   12.88786750313551
C         1.01206018936666    8.95833713204488   10.83275687067962
H         1.79574421363311    9.59706664418390   10.45739634985168
C         0.17648827891081    8.29056300613389    9.95381796374772
H         0.30762346781968    8.40473402096667    8.88946318952955
C        -0.82983749624661    7.47296866382789   10.43703598660616
H        -1.47484174039860    6.94637016527125    9.75024758637382
C        -0.88707160120329    4.29912118496432   11.63642922464876
C         0.44080279191674    4.47512361753368   11.27722233223518
H         1.08261276519457    5.10941612615777   11.87176219301893
C         0.94852248214582    3.83400586933201   10.16086977366446
H         1.98394675475193    3.97210255866411    9.89025124283036
C         0.13434029246692    3.01195791968608    9.40172229221007
H         0.53345649033694    2.50583519559406    8.53639102789447
C        -1.19043687356422    2.83081435176344    9.76205753627940
H        -1.82618892562234    2.18155185566851    9.18013425285907
C        -1.70231313245334    3.47759956923994   10.87173502552288
H        -2.72672553652485    3.31933895520392   11.17341001501703
C        -1.95347832946779    3.05564502021834   15.86556743135651
C        -1.82850111443401    1.85794582157587   16.55024524495723
C        -1.77722180689155    1.81419373789704   17.94647927189227
C        -1.88055958402959    3.00243965356034   18.66855983252470
C        -2.00682192436797    4.20191750013542   17.97851778350248
C        -2.04478688461454    4.24109174826937   16.58325988383221

