49
CSD_code = NIXLIS | q = 0 | S = 0 | Stoichiometry = C21H20MoN2O5 | MND = 6
C         6.68813660774410    7.77692733578848    5.55638366985430
C         5.14182486494420    4.91855650116066    4.65020191283514
H         5.05146646916956    4.49898441115734    5.64963400241964
C         7.17826564622421    8.55544754652024    6.69661731357212
C         7.60701425282394    9.86762667521145    6.49049494716014
H         7.55975191115037   10.28006056174172    5.49199479743308
C         8.06686499402551   10.61884173239034    7.55146838960069
H         8.39321147295910   11.63579327322161    7.38828517272371
C         8.11318767171697   10.08572524167417    8.83737982306644
C         7.68412136172636    8.77686655103145    9.03424630562370
H         7.71310197151420    8.35341004981115   10.02793466385972
C         7.21833722003893    8.01553256029754    7.98103595780427
H         6.88044875482500    7.00274156060755    8.13001558721810
C         8.62644015803977   10.91079732132342    9.97569189606856
H         9.70577618433424   11.03617329711143    9.88868625215759
H         8.41200552593365   10.43783165720351   10.93034058435199
H         8.17664880687887   11.90166109240002    9.96332826100581
C         4.58256118909770    4.22994959017477    3.53826959662136
C         4.77181022018881    4.75738048751651    2.24324413548669
C         4.21616416512450    4.09728917827869    1.11795658619767
H         4.38385695196379    4.54788131881322    0.14965531711226
C         3.49906329888774    2.95198459043739    1.26996210538530
H         3.07405254594929    2.45528266227419    0.40966290109562
C         3.29083745404869    2.38074990502498    2.54879929928235
C         2.54807251611984    1.19280999584060    2.68563148484194
H         2.14722026625689    0.73106053897220    1.79499892528998
C         2.33415538905043    0.63330774896765    3.91581059524640
H         1.76314139571635   -0.27732868983408    4.01490663246848
C         2.86097043235863    1.25283771655318    5.05284847075997
H         2.69091210839075    0.81352939242991    6.02468486571111
C         3.58863551277178    2.41069705882940    4.94772362364698
H         3.97367773741577    2.85714747843598    5.84998048678170
C         3.83154816036745    3.01386819608809    3.69921540221833
C         9.31451260289379    6.43952941007376    3.71605582383202
H         9.03763293084419    6.36972235342241    4.77319350482138
H        10.12818504533736    5.72417163213417    3.52162581392885
C         9.75896408550361    7.85105948122827    3.36579047118890
H         8.90982503851627    8.53264291261291    3.43870085575572
H        10.14064354258440    7.88656208596415    2.34691903542753
H        10.54136243018546    8.17840184327426    4.04546842003241
Mo        5.87052481506286    7.42321080800367    2.90462882599696
N         6.19526736213910    6.58612245595262    5.74035147264410
N         5.75159400035382    6.06148645024123    4.56629395099598
O         6.76819189641581    8.28120592358750    4.36177275017041
O         5.47504687442731    5.84292953819108    2.04267591317316
O         8.17069207721011    6.02925893622921    2.97441292486057
H         8.28966964350366    6.34952215321747    2.06649573109105
O         4.38551646293406    8.10166397994345    3.12405849990425
O         6.82598797425401    8.07978549849124    1.73556604119933

