51
CSD_code = NIXMIQ | q = 0 | S = 0 | Stoichiometry = C16H18Cl2N6O8Pt | MND = 4
Pt       -0.21153116164690    2.51411930216540   11.21772707105457
Cl       -1.34337120897139    1.76886036350596    9.34785979551804
O         4.95795266192644    2.52963985480474    9.46085367301051
O         7.11337665807118    5.77496681798643    7.15703826661627
O         8.33973741823633    5.22587978623281    5.41756624277874
O         7.38723242382961    7.14586729561635    5.52047207828271
N         0.96935508019453    3.57357714855780   10.09617241878753
N         5.48230897955851    4.71021715735992    9.21370093101891
N         7.67206343879008    6.06972064915767    5.90997671697498
C         2.27515804937567    3.31948985417782   10.05351179261235
C         3.16423431011548    4.08037405823199    9.30402235169727
C         2.66119625558293    5.13310550954390    8.54394722948683
C         1.29831098025863    5.38288829090612    8.58478275052579
C         0.48729333175165    4.58858352810706    9.37396519170525
C         4.60771088451763    3.68196600705716    9.32542466322668
C         6.90279076105557    4.48504634109995    9.13927773168885
C         7.39308711937114    4.48754203856474    7.69067000524910
H         5.15406682793299    5.64982507799376    9.06330165797619
H         2.64723030572939    2.48645935702263   10.64047745086356
H         3.30253221071298    5.72974558457801    7.91209185262192
H         0.86642704647461    6.18396129493719    8.00653617806719
H        -0.58327683790363    4.75213298685992    9.42269147191770
H         7.10179137458725    3.50194922922063    9.57229857811173
H         7.42377966937721    5.25916528196011    9.70577937960411
H         6.86630321637360    3.72572104075153    7.10630789124119
H         8.46885185962194    4.29106619526041    7.64553499834904
Cl        0.92025942461919    3.25933950678183   13.08795875070705
N        -1.38950253405974    1.45166885133038   12.33957166920061
C        -2.69631681211464    1.69924461417621   12.38777804644738
C        -3.57864617680264    0.93187985676147   13.13881973181282
C        -3.06741104884333   -0.12026267220541   13.89422242799469
C        -1.70355636008628   -0.36350166931339   13.84723509930616
C        -0.89971624413754    0.43689045961263   13.05701712687856
H         0.17146457227832    0.27858289909313   13.00362804922260
H        -1.26546908006493   -1.16405515274321   14.42151291163194
H        -3.70317227747017   -0.72156323128242   14.52728587586199
C        -5.02436314734777    1.32248880880713   13.12507728481856
O        -5.38175565165975    2.47298507160992   12.99292405051312
N        -5.89258475744685    0.28921460636726   13.24063253101669
C        -7.31380803227010    0.50603158184270   13.32478151447331
C        -7.79457632544414    0.49726067866582   14.77658083722448
O        -7.50530959344188   -0.79020867478166   15.30500586431467
N        -8.05627369545352   -1.09173059874801   16.55394536503558
O        -8.72582532032283   -0.25290110143453   17.05231391466809
O        -7.76390671845906   -2.16757912815947   16.93866181612961
H        -7.26760488005026    1.26002762209056   15.35954110894823
H        -8.87094517158682    0.68846803066878   14.82930150257968
H        -7.52131697570844    1.48894290710949   12.89535972101407
H        -7.83405787853073   -0.26979929512912   12.75992545971702
H        -5.55811137588197   -0.64880337106483   13.38715777454004
H        -3.07460559463076    2.53200934827935   11.80447319695216

