73
CSD_code = NIXZIE | q = 0 | S = 0 | Stoichiometry = C28H34FeN4O6 | MND = 6
Fe        5.01392177319120    4.30698224502108    7.63338084365389
C         5.03565426159747    2.14794911542604    9.39512280829435
H         5.10027638342192    1.36354421919406    8.62544891987138
N         4.15567949541307    3.17888329896465    8.86955825715196
C         6.42327775675653    2.79825747952504    9.53203648963206
H         6.32909662452051    3.61176575774659   10.25551721478631
N         6.76434745196279    3.40344853987455    8.24094965178045
H         7.15567420149644    2.69456147084603    7.62549026099619
H         7.47252596862455    4.11914353184830    8.37093411180747
C         7.47389101208386    1.79488225823914   10.00503833148321
H         7.58627439695560    1.00536766693955    9.25512891878982
H         8.43783984446975    2.29691690367396   10.11517024613871
C         7.05297741776892    1.17254913108075   11.33205790195952
H         6.99027086506731    1.95136523277270   12.09344243393575
H         7.79852443849839    0.44402582935951   11.65442651285097
C         5.69419200056311    0.49964987035859   11.18029395087783
H         5.38935540452651    0.06324060189281   12.13224056488481
H         5.76792651265687   -0.31098354052785   10.45085435677953
C         4.63608487533101    1.50261006934830   10.72607112215696
H         3.68288566472218    0.98208776123425   10.61922504697040
H         4.52665217876226    2.28395594141069   11.48024343970743
C         1.27214041211749    6.23287057754430    7.56153955020101
C         1.41821036660940    7.20502410697974    6.44189059344569
O         2.57943433281213    7.17664415726510    5.77843521715608
H         3.14551636381606    6.47130111707319    6.20588776721142
O         0.54020859096943    7.97542033361759    6.13316368563287
C         2.28563952951673    5.27886842114058    7.87190462794982
O         3.35744376913451    5.22180915680668    7.15200203997387
C         2.05068272127184    4.38782875961725    8.96166663879992
C         0.85306674201373    4.48875687897409    9.68280823283883
H         0.69252383762632    3.81217367214241   10.51110936844016
C        -0.10921778709287    5.42184520868609    9.36997748243754
H        -1.01993757831807    5.48190103286207    9.94497824346857
C         0.10744444363540    6.28818398623032    8.30930813673066
H        -0.62509576479230    7.03351438115019    8.03709251090279
C         2.98982990455845    3.39029456579282    9.37310564032647
H         2.63267225117848    2.77665634112296   10.19636152834630
C         6.08371355519941    4.81416590184728    5.11100047735310
H         6.96541499668177    4.16412785812842    5.22024218831976
N         5.86598585036943    5.44500288676259    6.40250283826868
C         4.85825148198027    3.91856004177386    4.85959043529490
H         3.98421091843853    4.57263117689294    4.81110453414674
N         4.68771214471052    3.05277779308059    6.03043218045639
H         5.29751271706221    2.24309846340168    5.94682344404331
H         3.73232256401369    2.71202108320073    6.07223345045218
C         4.99368999748850    3.12696518646736    3.55982884208605
H         5.84972259623524    2.44878100295361    3.63472320903513
H         4.09668879713616    2.52379186971193    3.40189877101769
C         5.20250245782809    4.07306207349365    2.38219579819897
H         5.31718630883702    3.50024014713699    1.46065518460779
H         4.32727226653578    4.71530811432883    2.27411571270410
C         6.43748216930917    4.93311843243782    2.62151481260308
H         6.58019597468071    5.61644378279848    1.78348676161266
H         7.32136393495686    4.29314752467365    2.68347771090408
C         6.29888086303309    5.74086838051707    3.90998587789024
H         7.20433817408168    6.33347731395711    4.05101520274426
H         5.44629518555653    6.41718414357690    3.82667282879970
C         5.26532631379164    7.67406044045551   10.14727988432840
C         4.83215240567603    7.13802499048247   11.46826668940780
O         4.54830994868804    5.83163979777702   11.51493551723254
H         4.68718612717007    5.46710782443407   10.59380614185078
O         4.74763684192314    7.83196475744915   12.45362952401680
C         5.43534638633056    6.83258496404827    9.00858179481293
O         5.24002464566263    5.55945474158010    9.11469509142877
C         5.85783315902196    7.44014523302715    7.78832303359014
C         6.07652028272151    8.82412049919365    7.75218647533913
H         6.38848350303748    9.27158104620921    6.81833313848407
C         5.89936593031282    9.61884111352727    8.86192699173347
H         6.06913182385624   10.68261513565898    8.80533680612298
C         5.49523594579781    9.03681593210184   10.05374980633300
H         5.34528706630295    9.63013526050499   10.94353668541450
C         6.06180281348729    6.70527928637024    6.57807726278249
H         6.41882318863800    7.32065971880335    5.75607224821406

