89
CSD_code = NIXZAV | q = 0 | S = 0 | Stoichiometry = C28H44F6N4NiO6 | MND = 6
Ni        5.56333324547991   -8.27332445058615   -0.00024051412171
O         6.41234642386849   -8.44073635672659   -1.63024830164730
C         6.18930450841008   -9.25611468059833   -2.56903239864958
C         6.94262412050842   -8.94524366461276   -3.87327740105998
F         6.30899443530354   -7.98550925606899   -4.57608380629799
F         8.18395709400903   -8.49850049650111   -3.65158423749741
F         7.05345780316661   -9.99853314663044   -4.69258909918367
C         5.36474608865699  -10.34976403097597   -2.58011620824515
H         5.30392299318038  -10.97230364450384   -3.45465448800838
C         4.60677377408586  -10.69974344727765   -1.44705430830918
C         3.82347309307963  -11.99200395474162   -1.44446408943804
C         4.74265218372948  -13.21657718953888   -1.53283429397260
H         5.15258191174143  -13.31739763005439   -2.53330027950793
H         4.16319125886811  -14.10430964066867   -1.28922667491418
H         5.56117146171998  -13.12631396519780   -0.82218373210753
C         2.73155158974774  -12.05266764977028   -2.51816524937547
H         2.09459268948050  -12.91084872590991   -2.31604175277700
H         2.11997600356285  -11.15333960791918   -2.49653764128959
H         3.16911444646257  -12.15801978634881   -3.50641139384728
N         3.22592813780098  -11.91958292901251   -0.13364621559076
O         2.49495981834294  -12.82145055357286    0.36538149470472
C         3.61100813241793  -10.70665083796349    0.57962728294134
C         4.30771630573945  -11.12065184387434    1.87681675654348
H         4.38362961162224  -10.27751426062264    2.55083391839176
H         5.30339221086251  -11.49718424047809    1.65703218286194
H         3.71591559203306  -11.90548395008400    2.34303630087009
C         2.33704047856988   -9.90302891587166    0.85737802816270
H         1.67775834574059  -10.50302009077872    1.47904790378126
H         2.58313080596808   -8.98138496786548    1.37040863579126
H         1.83183420701293   -9.68051726204748   -0.07948552328000
N         4.49445215853671  -10.01780670143139   -0.34641576098799
O         3.81439934203840   -6.89110416465542   -0.95385484968354
H         3.00087500555653   -7.00075991803018   -0.44459987053947
C         3.46021610786774   -6.77524564149400   -2.31707924243135
H         2.98360550650127   -5.80180769736846   -2.49720233263253
H         4.39048883419602   -6.82515747898521   -2.88338788582182
C         2.50552976517827   -7.91017856351325   -2.78215240960200
H         2.93275606711853   -8.83672673887447   -2.37977402818196
C         1.14549710417792   -7.69831734105724   -2.25320544899097
H         0.45300955831989   -7.08469407354553   -2.79532754602971
H         0.84897373669078   -8.05837851016576   -1.28715456380014
C         2.51134539379386   -7.96732839198267   -4.31088053523797
H         1.86333578897227   -8.76802735321531   -4.65830368589131
H         3.51674351358256   -8.14480697306981   -4.68383146106529
H         2.15017553353957   -7.02884614837512   -4.72413608836457
O         4.71422028959455   -8.10591881969152    1.62960887040260
C         4.93733557143496   -7.29063269648269    2.56846919916883
C         4.18361843369745   -7.60140214671436    3.87249432065799
F         4.81632529743401   -8.56203727347497    4.57490038275935
F         2.94191429686673   -8.04695911241895    3.65042156108340
F         4.07361204978829   -6.54842740991331    4.69231039923876
C         5.76209601738621   -6.19714052106872    2.57969497865396
H         5.82297699861395   -5.57466735039135    3.45427656412569
C         6.52019304357029   -5.84723258069095    1.44668821159518
C         7.30371045187172   -4.55509735076257    1.44417607590151
C         6.38466442461737   -3.33039164506140    1.53226481762166
H         5.97417831223979   -3.22973006113123    2.53252025271991
H         6.96437578421019   -2.44268220411609    1.28917538659168
H         5.56653336106275   -3.42040043009593    0.82113674340526
C         8.39542127961263   -4.49447179898261    2.51808071290425
H         9.03273082990334   -3.63659041346514    2.31578268321439
H         9.00668259299500   -5.39402359395890    2.49688006923922
H         7.95770424881587   -4.38861605944737    3.50620383844704
N         7.90149774926020   -4.62769849766575    0.13348300495627
O         8.63316726706581   -3.72623820704809   -0.36524690890012
C         7.51602126012670   -5.84040712402950   -0.57996081081986
C         6.81940459095223   -5.42596062220830   -1.87707055552185
H         6.74307085544682   -6.26898859005489   -2.55117805799713
H         5.82389922043872   -5.04902089715986   -1.65720646029983
H         7.41152263554177   -4.64134502756061   -2.34325569213245
C         8.78971865799343   -6.64439079888381   -0.85783726295346
H         9.44948636520819   -6.04422987913114   -1.47882671519079
H         8.54343625956683   -7.56557079159337   -1.37159353177376
H         9.29443455521746   -6.86781331284701    0.07907088933293
N         6.63243957351062   -6.52913441261272    0.34603179558496
O         7.31244921425835   -9.65485474070273    0.95398169919245
H         8.12607061227051   -9.54589546226738    0.44473376325774
C         7.66645478815707   -9.77192354122840    2.31714433614672
H         8.14303523246311  -10.74551456250357    2.49652081448502
H         6.73609657618576   -9.72246073992173    2.88335212661470
C         8.62116259851163   -8.63749706223616    2.78335179729614
H         8.19421997726737   -7.71041957768311    2.38201850387583
C         9.98126831473796   -8.84909345858386    2.25449145029964
H        10.67200577530983   -9.46692313823677    2.79408562370816
H        10.27994815514758   -8.48349312409213    1.29121172429622
C         8.61513554866997   -8.58212057194540    4.31223119551653
H         9.26284870622917   -7.78160889978849    4.66063319230048
H         7.60962744699395   -8.40540898760454    4.68525773839556
H         8.97660259251532   -9.52095963197749    4.72441208693362

