39
CSD_code = NIYBAY | q = 0 | S = 0 | Stoichiometry = C10H18N2O8Pt | MND = 6
Pt        7.53122135920906    7.79957010784128    1.61971580742884
O         7.25446915307048    8.89125374154511   -0.03761808569902
O         8.31685719938257    9.93278614857279   -1.66667970905560
O        12.32113007791425    7.14682317399969   -0.04074792571779
H        12.95278961160056    6.64564009172163    0.48501509904692
O         7.74030208372651    6.68006577982554    3.29563375922078
O         6.63527265900809    5.45551459577428    4.75723826362963
O         2.61724423789327    6.84524645006420    2.01903899302438
H         2.08279309170109    7.17868584025897    1.29098140126583
O         7.57846016422507    6.07523377364929    0.53759728551892
H         7.83881518639204    5.36703325207883    1.13201442171116
O         7.48828093257441    9.48265581108252    2.73863714488538
H         7.56798383201125    9.23082297445404    3.66273833947169
N         9.48980556065420    8.31550982268447    1.31917465157129
N         5.53587788840845    7.53301040215244    1.97656745893295
C        10.54749954565434    7.34140929879299    1.63267470065659
C        11.00642610078865    6.75195924013210    0.27334777239244
C        10.05003476507077    7.37964650626219   -0.74758475801932
C         9.64584843534466    8.69987953832644   -0.09346676212402
C         8.31332524644044    9.24705710485011   -0.67395777856404
C         4.76289438209428    6.97058244468190    0.85270760201609
C         3.69304041539538    6.08926276349112    1.51423949660280
C         4.46600845230259    5.50288917550815    2.69554400723091
C         5.32102151504360    6.68278647552444    3.17378077923689
C         6.65831933922874    6.21124537319965    3.81646455602959
H         9.53288488228709    9.14185314240072    1.92924364547687
H        11.39687435027241    7.84509751108007    2.10636523539595
H        10.15934449519133    6.58200724635251    2.31538817465635
H        10.92735758590315    5.65887724559920    0.26624530062673
H         9.16801557295947    6.74776287605987   -0.86712781901730
H        10.54146527124248    7.52811110084153   -1.70465245799669
H        10.43968483816514    9.44577680290960   -0.21505907346601
H         5.22430791458045    8.48822772067433    2.16873704313818
H         5.43586474024436    6.35507108117466    0.24567414552723
H         4.35485020422635    7.77091866523933    0.23566159203560
H         3.33327264283615    5.31062204819708    0.83077398629529
H         5.09355656905387    4.67861673187673    2.35898575371118
H         3.80178563437933    5.15002578732913    3.47931269524898
H         4.77441406352356    7.24436215379068    3.93859525767434

