110
CSD_code = NIYCAA | q = -1 | S = 0 | Stoichiometry = C50H54FeN5(1-) | MND = 5
Fe       -1.43176761252520    8.04309792214707    8.50104375900150
N        -0.66686087682941    8.33798094878353    6.69328800531965
N        -0.93452774699276    6.15013113755415    8.20096762716290
N         0.50195925586484    8.53570707469821    9.06063642618562
N        -2.10461021907907    9.96848961427726    8.12349686030317
N        -2.21664367387951    7.96855894553461   10.06506042340049
C        -0.12224722955933    7.10282556786726    6.18426973865277
C        -0.26931805907404    5.97910401058788    7.03563871748988
C         0.21240866263389    4.74510380023342    6.55290341587130
H         0.06398717263406    3.85830700636459    7.15270748439894
C         0.85416671839300    4.66035083869005    5.33823140499145
H         1.21644817955368    3.69935271516307    4.99499098834242
C         1.05458403309254    5.78812893119327    4.55475064610049
H         1.58162137796847    5.71838973365679    3.61390835260145
C         0.56277905309611    7.01019849604671    4.99069175910497
H         0.72134409702153    7.89726775620899    4.39344033333410
C         0.38283646349186    9.32897599973893    6.83328805004931
C         1.04124210750921    9.31135224789075    8.08180048428399
C         2.12453922674632   10.19276397429236    8.24459971140810
H         2.64224384766652   10.21685004179529    9.19318133621730
C         2.48846955539706   11.05567516454023    7.23235395009133
H         3.31344617498698   11.73942468074682    7.38927043263454
C         1.80203082398922   11.07867007660374    6.02778482515229
H         2.08343621255296   11.77254971744266    5.24831759627919
C         0.74108959077382   10.20374062374138    5.83273373195729
H         0.18844576324563   10.21885595388536    4.90231116146553
C        -1.82649907333091    8.89245232132020    6.04906476543533
C        -2.51746128744363    9.86541074792530    6.84081067940561
C        -3.47172735387072   10.65301245357461    6.17146728632006
H        -3.91369434693620   11.49756692775506    6.67813098588737
C        -3.83078895021255   10.37574581838427    4.86689044888185
H        -4.58268036298940   10.98877681554901    4.38548016047059
C        -3.25677619453018    9.32512662785774    4.17141368758509
H        -3.57556831394975    9.08885455381853    3.16619742496068
C        -2.21865042858362    8.60928147873285    4.76048150695779
H        -1.71154376949830    7.83513515229625    4.20128198612100
C        -0.84139577357290    5.23725210270385    9.22305091299547
C        -1.98597701166916    4.92088875765542    9.96129345773089
H        -2.92004673698926    5.38363507429588    9.67578152509470
C        -1.93658789778219    4.05043636654747   11.02991042156929
H        -2.85557752828622    3.84318576939427   11.55792158246297
C        -0.74693291934394    3.44373107727954   11.41692481261704
C         0.39771428419169    3.77448033270567   10.69252413118345
H         1.35321185696656    3.35053913303473   10.96946292697110
C         0.36165473193501    4.64146229640077    9.62444013338621
H         1.27443736549542    4.89709029568913    9.10681801437738
C        -0.64864958207163    2.46642174880234   12.57973322433751
C        -0.07647284061580    1.13240953443172   12.07831766771177
H        -0.00617432111402    0.41606519823109   12.89637818738282
H         0.91509696678162    1.26582528214430   11.65528831135037
H        -0.72100032971696    0.71585877423275   11.30669496872908
C        -2.00498811809959    2.18083980491232   13.23178147926661
H        -1.87727428146332    1.46740254859768   14.04552104375488
H        -2.69979732726131    1.75324403199544   12.51237252626053
H        -2.43673682118083    3.08946942171435   13.64451295363608
C         0.27983455234759    3.05507737716709   13.65008343261076
H         0.35816423564497    2.38311150324938   14.50452711542455
H        -0.10941839166430    4.01176443145358   13.99231052728010
H         1.27570527000531    3.21821666813728   13.24874104140337
C         1.29814568071506    7.93617441012500    9.98717122860530
C         2.63707379654174    7.58225545892479    9.73139121070971
H         3.05622724492475    7.78357671557741    8.75448403948016
C         3.41004472643134    6.96642797610862   10.68746455208523
H         4.43173372247837    6.71568865348427   10.43069815574927
C         2.91437754894433    6.65339410889167   11.95260309236643
C         1.57512637552435    6.94987206585917   12.18908287150479
H         1.12051831272093    6.70138999098326   13.13654308400372
C         0.78887578641074    7.56864437298366   11.24201910977455
H        -0.24825930662604    7.77870729724040   11.44405418851608
C         3.83095183359294    6.00773756706246   12.98154225762940
C         3.15603800414354    5.82944494835484   14.34455599164223
H         2.29576818450054    5.17020733765428   14.27108856256470
H         2.83184373709101    6.78894743956397   14.74130213421516
H         3.86100238155421    5.38918934723842   15.04983880890205
C         5.07108806934780    6.89092088115877   13.18856317681329
H         4.77043140345743    7.88219092642169   13.52181223012159
H         5.63501491790160    7.00061375222046   12.26665376903851
H         5.72835680830238    6.45553619138851   13.94118259830540
C         4.26698421667543    4.62603273773968   12.47414380825303
H         3.39371671017173    3.99772104283730   12.31432958984336
H         4.92039645184317    4.13751954692434   13.19703232876697
H         4.79816121018256    4.70920993552252   11.52971970166695
C        -2.68840705376564   10.71443353232972    9.10211512063558
C        -4.05247079188953   11.02282546297594    9.21326993698294
H        -4.74888176649593   10.65937906477619    8.47145035482852
C        -4.54150111567914   11.73684361923570   10.29073084612506
H        -5.60283215514242   11.93929352265665   10.31642997691842
C        -3.71624552428740   12.17261320670022   11.32016444248962
C        -2.36484025480095   11.82395493882339   11.23415600899811
H        -1.68432093036356   12.11091590792872   12.02464982895149
C        -1.86450955259678   11.11825654300721   10.16841057510098
H        -0.82564274333099   10.82898665171389   10.12665702199657
C        -4.21312955518293   12.98068579648548   12.51072770448830
C        -5.70505038666046   13.31605177289689   12.41949112290541
H        -6.31003348152109   12.41200132499580   12.40945379296183
H        -5.91785467636472   13.89302100657059   11.52247559862265
H        -6.00103687305963   13.90994584266712   13.28378200964970
C        -3.98275161372490   12.18700414931092   13.80552941675005
H        -4.57710634064605   11.27484238103323   13.79962603275182
H        -4.27407565973792   12.77965481032537   14.67219263467305
H        -2.93734092382829   11.91138150419009   13.91314282819863
C        -3.43576883495454   14.30352963654807   12.57866807551128
H        -2.37287975982563   14.12545213854747   12.71378827536964
H        -3.79032103039930   14.91314911210636   13.40939101986339
H        -3.57060221310540   14.86284724553862   11.65515102805375
C        -2.81969163608744    8.14865473576010   11.04001359307461
C        -3.56100806245911    8.41654587845196   12.24696621776088
H        -2.92517437495621    8.25296590793494   13.11821864068972
H        -4.43057028574466    7.76091968817306   12.31422934064741
H        -3.89127242064042    9.45651850622878   12.23636551324696

