84
CSD_code = NIYCUW | q = 1 | S = 0 | Stoichiometry = C41H36CuN4P2(1+) | MND = 4
Cu        7.39452215035700    9.26336165181552    9.10949672510118
P         7.33208085328977    8.33807837255978   11.24779916989440
P         6.16417563001601   11.18729469335925    9.45657529013344
N         9.07300786649694    8.22732600225372    8.44338644628382
N         6.17732890850677   10.64228763631986   12.15807376191328
N         6.61989718330910    8.26587710962525    7.46034859404709
N         8.37055563101151   10.06928411686524   12.45623948062694
C         6.02963495260806    9.20923545491236   12.26086466500121
H         5.01816347822531    8.91943686962003   11.97887939864701
H         6.20517460701114    8.93365864414318   13.30847241551175
C         7.43922596511495   12.48163014287924    9.52966932503121
C        10.07491847512575   11.66323729293772   12.90812801421063
H        11.11108923704754   11.86497568152755   13.12287867673298
C         7.47350715774845   11.05492488537208   12.37752698686856
C         4.94588621230051   11.98553816070065    8.36379919571268
C         6.29324999291786    7.04971369447695   10.42311677053040
C         3.66851217851374   12.39211155830378    8.73087562691805
H         3.31687471379218   12.27455595737406    9.74491258040957
C         5.39410335513580   11.33286659031382   11.16919624839855
H         5.30005759631178   12.39304083017205   11.42879832959483
H         4.39590835778965   10.88527648440640   11.14513591395833
C         4.92531291095748    5.17548269573887    8.86888418677802
H         4.39087415621799    4.44806790996906    8.27714187797526
C         8.77052556189485   12.09102080779975    9.44453325350185
H         8.99411123852934   11.03692605039755    9.31792671429943
C         8.69060628694532    7.14421234237018    7.74924642179022
C         7.11731893279367   13.82899933381165    9.66374303404557
H         6.08097083844117   14.13720955441543    9.70034047076965
C         7.82356935115538   12.39467663238878   12.58131413145782
H         7.07517009450831   13.16889135967417   12.55461841928675
C         8.15016389099424    7.23618647459812   12.44752466751931
C         6.84645431411606    5.79783516548562   10.16295381708564
H         7.81701745746550    5.55077538287997   10.57330079762669
C         9.14072357931174   12.69414854763571   12.84588906983024
H         9.44120856476043   13.71616270294524   13.01659570417378
C        10.25216739735744    8.22276922949897    9.05071486861815
H        10.51767890976005    9.13195051499669    9.57552734257526
C         4.37328895725410    6.42456380081668    9.09991513014242
H         3.40806944626534    6.67399404749996    8.68329179154279
C         9.45485239782414   14.37333971682162    9.68016810932534
H        10.23876681388177   15.11251671564905    9.74233271326669
C         9.77720793238996   13.03473419877483    9.52615238834743
H        10.81143983575462   12.73111981539821    9.46489313588523
C         5.05914103503784    7.35721529029763    9.85472561289305
H         4.63227014379843    8.34521390059086    9.98431538420817
C         7.40438025381870    7.26467149725995    7.05226252186223
C         7.40754197703184    6.53866603247751   13.39488962928880
H         6.33163262058691    6.64494154092397   13.42539686861383
C         7.01669377749235    6.42827576107551    6.00663030941367
H         7.66551499699557    5.64087398012172    5.66047126824247
C         9.52412324958256    7.04476801456078   12.37574790838944
H        10.08814894629282    7.55612689369573   11.60848806517684
C         2.83460164073554   12.96784736764721    7.78604313732917
H         1.84575046413703   13.29024707115871    8.07545559882976
C         8.12731397467093   14.76922269274947    9.74121699478991
H         7.88059558172773   15.81489864511849    9.84677792194405
C         9.48025525004325    5.99724875732879    7.70190231158152
H         9.13809209123821    5.11795748529960    7.18173705806645
C         6.16857334759151    4.86870190173695    9.39578562143008
H         6.61001764290695    3.90032085452708    9.21131041902868
C         5.45622980701853    8.47540293577449    6.87089154590464
H         4.87763067310506    9.31032191242649    7.24598371403680
C         9.63674507438516   10.37027223060004   12.71618723730866
H        10.31085602077951    9.52899162634586   12.78884565164470
C         5.36671848845847   12.14162998892937    7.04258676260546
H         6.35976628635454   11.80660514500923    6.76756229254164
C        10.15729418419039    6.19304530216281   13.26379105499847
H        11.22633116969702    6.04878049459560   13.20592243531904
C         5.79130747611949    6.63775205878489    5.39963278874876
H         5.46834121995765    5.99938141576901    4.59161555315040
C         8.04406729470231    5.69195593556764   14.28325792616865
H         7.46611198123448    5.15549909855291   15.02089412861621
C        10.70309649973070    5.99389157810857    8.34811105024539
H        11.33207140084572    5.11755680407242    8.32372946188961
C         9.41858622056241    5.52357204680730   14.22462774110319
H         9.91104575736005    4.86210132373151   14.92089965041114
C        11.10993579269901    7.13811329581968    9.02137714709400
H        12.06769435212892    7.18299210433043    9.51423365262199
C         4.99056901069735    7.68372010394513    5.83580435202121
H         4.03172889503575    7.87956156652948    5.38461559888084
C         3.26156114624842   13.13330424183252    6.47961217832424
H         2.60553067946107   13.58415971469532    5.75120417784267
C         4.53158632556088   12.71830824743005    6.10702567228129
H         4.86607387884581   12.84398831109044    5.08844993365037

