67
CSD_code = NIYJUB | q = 0 | S = 0 | Stoichiometry = C26H35Cl2N2PPd | MND = 4
Pd        3.78578321332572   16.52408530010540    4.86741566850618
Cl        3.60276152002253   14.27938945620560    4.54927496000831
Cl        3.76120650726371   16.82277925314889    2.63848700633728
P         3.15672394524237   18.62053761958294    5.18921688063997
N         3.95628227883721   16.60793832934202    6.95829678463990
N         2.82214821217535   18.60471092465089    6.89161255777173
C         3.37004705485482   17.55889010544796    7.59765817097684
C         4.90813527888745   15.70583219385242    7.58255373923253
H         5.27254412003725   16.13386860030305    8.52851748958945
C         6.11756225590113   15.58287212388630    6.64077927048870
H         6.55836293168170   16.57752453579248    6.48916914612885
H         5.78025355438231   15.18803436194400    5.66822254174262
C         7.15055785029167   14.62565603701910    7.22651485368020
H         7.99191987263493   14.53382940597541    6.53789493173659
H         7.53268026595529   15.02424667071959    8.17127801148911
C         6.51918231968900   13.25782517733430    7.46569345968994
H         6.16420358484262   12.85576664842886    6.51582634877564
H         7.26177719091344   12.56953269932197    7.87407716323982
C         5.33891054366899   13.38281775330101    8.42320515176131
H         5.68976688057178   13.75758821767720    9.39007073603702
H         4.88794609332257   12.40324533194529    8.58808771960827
C         4.29142863192167   14.32972713196894    7.84805189329070
H         3.91458122771654   13.93493721441951    6.90210526558988
H         3.44874280605690   14.42944187575348    8.53785616354000
C         1.82528960226373   19.57083093386709    7.36256307630386
H         1.68222118967003   20.22731283280381    6.49419188175595
C         0.46838308995273   18.92333048604896    7.65512753301610
H         0.50538965173671   18.33704640674651    8.57465375737206
H         0.20499309377864   18.24696152430484    6.83947696473014
C        -0.58919952642785   20.01549433467692    7.79505827282469
H        -0.68549429191956   20.54405779653672    6.84401573551477
H        -1.55534531472522   19.56319062554123    8.02385708184994
C        -0.20280467544545   21.00214566840306    8.89379313418472
H        -0.18810110251079   20.48510212435966    9.85611285540731
H        -0.94773963654933   21.79690286458775    8.95533794227251
C         1.17381729041232   21.60342708760873    8.62350365119468
H         1.44503007051182   22.28582366374955    9.43091787578870
H         1.14606603078790   22.17828927971203    7.69528769156726
C         2.22622256693315   20.49998417966337    8.51239488092806
H         2.27056837445551   19.97578642231741    9.46503784364208
H         3.20445335455961   20.94088608747666    8.31866951951708
C         3.32510765713485   17.61177258801088    9.10102285758325
H         3.54319988171681   16.63504921816515    9.52114061062236
H         2.33729464684423   17.90197861056853    9.43975647226887
H         4.05252911641896   18.33053163018741    9.47655034539130
C         1.48618887859025   18.73773240258464    4.45511442304141
C         0.81238138840080   17.52736737003103    4.28325612130919
H         1.30912108330424   16.58499230918206    4.55080672379242
C        -0.46597295929414   17.51176761545902    3.75701185555670
H        -0.97886508514697   16.57218439224228    3.61782024736188
C        -1.08174782299923   18.70084939471043    3.39780759749471
H        -2.07728323378333   18.68871045158390    2.98012842828139
C        -0.41674904585789   19.90397017080102    3.56369823747321
H        -0.89343567685542   20.82995176703380    3.27675169823301
C         0.86318182636037   19.92716520047361    4.09052711382816
H         1.37973888526634   20.87126396356206    4.20208370091115
C         3.92225085623662   20.22655879735522    4.86189502438953
C         4.65901882455981   20.92050563480350    5.81542537089833
H         4.71715733955121   20.53982373555727    6.82556236714268
C         5.32212354283260   22.08235653698884    5.46476487460394
H         5.88126290175285   22.62902197118901    6.21018572463023
C         5.28094223748036   22.53756191979925    4.15666738072480
H         5.80010752501816   23.44484912738581    3.88627037791939
C         4.59629607479398   21.81620616111438    3.18992578936933
H         4.59254435573091   22.15449982682211    2.16461009164039
C         3.92614124433186   20.65850984921931    3.53533527515091
H         3.41410764996170   20.06747006863378    2.78741567800354

