55
CSD_code = NIYLEM | q = 0 | S = 0 | Stoichiometry = C18H30N4PdSi2 | MND = 4
C         9.74503309819638    0.73669493255364   11.77899648010882
C        11.02506220774550    1.10392352398132   11.32624238472203
H        11.54723503060893    1.89984326191131   11.83143334256168
C        11.58520729232104    0.42710034288290   10.26795978722664
C        10.84941741903003   -0.61010060217652    9.67132641800692
H        11.26467175281796   -1.16262121112601    8.84351779511032
C         9.59590871362994   -0.91740733571097   10.14935444692130
H         9.00503663952399   -1.70865153301789    9.70670854439904
C         6.96683494780635    3.14901903606404   12.19027594137142
H         6.74596421231877    2.27965321446357   11.54241445325517
H         7.00296945126421    4.03086929032581   11.55722402004775
H         6.12749987933419    3.27105608296759   12.87002133723108
C         8.44167019778208    3.00668082801654   15.03801228068392
H         8.18634703644825    2.05027531963851   15.48428667881624
H         7.67539472934284    3.72711069356508   15.30433129687034
H         9.37019706409612    3.33979394477765   15.48936601849653
C         9.88550248550749    4.15547401918713   12.53004008679382
H        10.07068565827591    4.06604120542117   11.46418614699325
H        10.83556635078866    4.05183279895300   13.04362125901177
H         9.52122999544830    5.15959584071285   12.72044155085660
C        12.94796924631201    0.76660095587366    9.75057428222298
H        12.89561783338106    1.02598054439187    8.69405078079960
H        13.37467529581645    1.60286891940785   10.29773216803957
H        13.61097295017044   -0.09210418962547    9.84860531669490
N         9.06898252401271    1.22000299080291   12.82621879034523
N         9.05213689407182   -0.25865738449601   11.16777690361988
Si        8.62903554371576    2.85017620036283   13.14144115512374
Pd        7.47933987635360    0.00042339762693   12.36838892173123
N         5.89015140368298   -1.21986895539937   11.91093052775562
C         5.21387577932158   -0.73651971213075   12.95798329595119
C         3.93371141762005   -1.10369506447977   13.41040752962878
H         3.41155203157668   -1.89946428625374   12.90496506853053
C         3.37340125916478   -0.42700227126732   14.46868385605878
C         4.10917572813834    0.61000745067046   15.06566464029317
H         3.69382324280574    1.16240308857129   15.89350676932267
C         5.36279412064928    0.91729676971530   14.58791935337903
H         5.95362819666978    1.70842211833184   15.03083478052170
N         5.90670999579143    0.25872691340178   13.56945773350698
C         2.01050203858001   -0.76646212054030   14.98573359260954
H         2.06261938219870   -1.02604779275943   16.04221840993588
H         1.58381707432094   -1.60258242824501   14.43833381388585
H         1.34760742939331    0.09233096464650   14.88773509182333
Si        6.32988867094974   -2.85012794663251   11.59577249360905
C         7.99182031488954   -3.14950840785631   12.54725901497995
H         8.21404699222616   -2.27922323258700   13.19344299105608
H         7.95428531897174   -4.03005267501179   13.18207172759096
H         8.83090596079037   -3.27419466743437   11.86768057338311
C         6.51741549707780   -3.00681324034715    9.69921290065985
H         6.77222031093380   -2.05034458059154    9.25277784577806
H         7.28410735580436   -3.72685035992965    9.43302648688546
H         5.58911119895324   -3.34053667442940    9.24784757704288
C         5.07308027169724   -4.15512677947095   12.20713166279523
H         4.88756485166804   -4.06527062098469   13.27289294028112
H         4.12318180202858   -4.05161919190359   11.69321691926416
H         5.43733802797502   -5.15935138481487   12.01724381541010

