127
CSD_code = NIYMOY | q = 0 | S = 0 | Stoichiometry = C40H72Cl2P12Pt | MND = 4
Pt        6.50011883597447    5.36274551912674    5.72409214376639
Cl        7.21619037179741    5.21333863961989    3.53083521758440
Cl        4.82617811504046    6.92396252865189    8.62710160095464
P         6.20654808897942    5.68649283039997    7.93006665362975
P         5.66132750569341    3.86313716918908    8.92996781880842
P         8.32770040782504    5.23845608034666   10.23987255404697
P         7.83616289798737    3.58025851571369    6.48415273965149
P         9.07232292085599    4.94558817441787    7.55663880880069
P         8.03059132562687    2.54856934979179    9.46056549216668
P         5.16906321423098    7.03103159082979    4.73358215947932
P         6.22493589391708    7.88179559875165    3.04605144392760
P         3.25362292151386    6.82005629266912    2.17152204954953
P         4.45479729830857    9.10246693331001    5.17394933062400
P         2.55280290532977    8.21539969338655    4.50469135028059
P         4.16747484051633    9.45938016201448    1.96577515198465
C         7.88733818556993    6.07177609525348    8.60787884152469
C         6.97497954298793    3.91001940123041   10.27839860700973
C         6.90080846591775    2.81053957262623    7.95503674506407
C         9.24309961606286    3.96595495690387    9.16935578858426
C         3.47243516280150    6.61277777598622    4.03966993330489
C         4.86652678913308    7.69934674763070    1.73288737504044
C         5.25917502941217    9.49232090349127    3.49668879271949
C         2.65012927251632    8.56600216838333    2.65008466304792
C         8.28643539908131    7.55896321465657    8.51238602552386
C         9.80107687202629    7.68942198530404    8.68996728979465
H        10.10459990923754    7.23522259435679    9.63293835002497
H        10.08700088523471    8.73888659814014    8.70605074444435
H        10.33459160427924    7.20475118979336    7.87426231631408
C         7.63241171686352    8.37969871679729    9.62809647208337
H         7.85537942672687    7.92866476112881   10.59645522412990
H         6.55612748703964    8.44632649252648    9.51728120419737
H         8.03458378884931    9.39079990269756    9.62422064665882
C         7.90503842704134    8.09801073979487    7.13379662631646
H         8.24499309231086    7.40649261404557    6.35158835043659
H         8.37818013472553    9.06192252468319    6.96059465444820
H         6.82391013957338    8.23222864781303    7.04470013952618
C         6.39647850245670    3.75008821289926   11.68966910030814
C         5.44646626738862    2.55699603793738   11.76717660915657
H         5.97019086236713    1.64296090297699   11.49210560647205
H         4.59798726541010    2.69331354824396   11.09691615656301
H         5.06441399067906    2.44400610030123   12.77951179682853
C         7.53058033352218    3.52955016973996   12.69074139661711
H         8.09687856970750    2.63892463037806   12.41997524678714
H         7.13254031516812    3.39648694385821   13.69434497822489
H         8.20808782755925    4.38401469895661   12.70264653711255
C         5.64175378841727    5.03874046276925   12.01663758232476
H         4.83124448505479    5.18828540325002   11.30076215367549
H         6.31609600782337    5.89524926218699   11.95414946645255
H         5.21951110103168    5.00237400366451   13.01807337923558
C         6.26375824889146    1.48568865271957    7.47556992900833
C         5.24389131268410    1.80539231182306    6.38464147756049
H         5.74147531193361    2.23749051459914    5.51547219798734
H         4.51407762839798    2.52431932132688    6.76470148629626
H         4.71797844930251    0.90715343478510    6.06881253163411
C         7.35181211018881    0.55435528669920    6.94006344238039
H         7.81961674840894    0.97075460803912    6.04981707613441
H         6.92951382251401   -0.41530732525663    6.68630205816457
H         8.12210231381925    0.40888678131684    7.69932568147164
C         5.55213332183077    0.77664153089276    8.62782853435011
H         6.25890810619906    0.55029713535898    9.42702105081732
H         5.11621210524744   -0.15859075123677    8.28247450983460
H         4.75080977407230    1.39687182098986    9.03005859329885
C        10.68317276159183    3.53303382181307    9.46396539455939
C        11.05938665283713    2.51635478433019    8.38659897374031
H        10.97113671816468    2.97387977925274    7.39904987182162
H        10.38136131720768    1.66156745950536    8.42706918944327
H        12.07812276628214    2.15982452003519    8.51923183488902
C        10.76952455283938    2.89591651700696   10.85109160104489
H        10.44916371136906    3.60996777186216   11.60951166302996
H        11.79189174387494    2.59409291952641   11.06824802433495
H        10.13299881038871    2.01235275093399   10.91153788090045
C        11.64381747424061    4.71832702678745    9.41884785792779
H        11.62217645403812    5.19415020864088    8.43992464808832
H        12.66100328665203    4.38624193046616    9.61510645320591
H        11.36998348493465    5.45121609803623   10.17645478093070
C         2.88098415798162    5.29687876257801    4.56318265417979
C         1.43262738270072    5.16976351942877    4.08750462481313
H         0.83651077782801    5.99895305443998    4.46780477137347
H         0.99753152244640    4.23938804407224    4.44575458491941
H         1.38511179134647    5.17156996306888    2.99811733282277
C         3.70978000979625    4.14036673853811    4.01077457189905
H         3.74961894289079    4.19088007260552    2.92158103555568
H         3.28445246843415    3.18311964691345    4.30223179742605
H         4.73801938682577    4.19302045860087    4.39227561643121
C         2.89116928068138    5.27801742936009    6.09120172295495
H         2.48177279994920    6.20977302152330    6.48671446892972
H         3.91318829083855    5.15489491671136    6.46670353773339
H         2.29412127628353    4.45078050369865    6.46890924077724
C         5.38215317881813    7.27610494792180    0.35076745595270
C         6.62994105612242    8.07311289081063   -0.02415494186332
H         6.96745013253888    7.80056765233756   -1.02187971771511
H         7.43922614265145    7.86834202470863    0.67649694651779
H         6.41136227771265    9.14054701466720   -0.01257450494240
C         4.30100847095164    7.54265101714933   -0.69682838665048
H         4.65150673040630    7.25636194275021   -1.68612552554028
H         4.04455483249154    8.60212785685062   -0.71443650942818
H         3.40230824088918    6.96628486129095   -0.47271817593493
C         5.70647919643048    5.78385968149981    0.38071285329830
H         6.05091796683380    5.44583799848270   -0.59408028229148
H         4.81666240112741    5.21121238078334    0.64976563268266
H         6.48047074521761    5.57808684088807    1.11588461253697
C         6.09274329020891   10.77979863637220    3.58173789958728
C         6.84813606739322   10.99174616898515    2.26993829450499
H         7.50226455076120   10.14272096691789    2.07189484216062
H         7.45747342018138   11.89152646405023    2.32406200622959
H         6.15119573458417   11.10167398267378    1.43787967993505
C         7.11343208136037   10.65556359363205    4.71260595379688
H         7.69752140412001    9.74362430917615    4.57911711915186
H         6.61313249322292   10.61313309247482    5.67959180287303
H         7.79164204526405   11.50620843980601    4.71284211823060
C         5.15433845489224   11.95934995773401    3.83253337249783
H         4.59939938558976   11.81304382721740    4.76032916547376
H         4.43806927688701   12.04558300548810    3.01385126854172
H         5.71195498648163   12.89039002072079    3.90436812409447
C         1.33661608158634    9.14918557364538    2.11476952028508
C         1.37347713812806    9.24358549711869    0.59022540443602
H         1.49977906732760    8.25286844205722    0.15667866043750
H         2.19653755949074    9.87868693646861    0.26217361738448
H         0.44517322995182    9.66907164186687    0.21480653421405
C         1.18458330524827   10.54488266649800    2.72004959856963
H         1.18621077138062   10.48359818910191    3.81043940747314
H         0.25654672481807   11.01228347650363    2.39927937955442
H         2.01850493782124   11.17759549340918    2.41209941166212
C         0.15110771949774    8.27050502141589    2.51269910844461
H         0.03986083557773    8.23627088608592    3.59608627685880
H         0.29707372074184    7.25676573685123    2.14173641881286
H        -0.77052053832083    8.66375876332853    2.08907954036764

