68
CSD_code = NIYPIU | q = 1 | S = 0 | Stoichiometry = C29H36OPRu(1+) | MND = 9
Ru        8.43712912401753    2.27402703285722    2.40582652934935
P        10.51327033658498    2.81329983827537    3.31073095123514
O         8.97139167416586    0.86818238986340    4.81862344740841
C         7.29952000029516    2.49324871896804    0.47854957412796
C         8.24762602507397    3.56052534919209    0.56893487963183
C         7.90525777006595    4.34322409154775    1.71142851662551
C         6.75187564796897    3.75222795945846    2.33813750686871
C         6.36954369442669    2.60739206508187    1.56283130660128
C         7.12768741781571    1.59094394889321   -0.70227242728888
H         6.57048493070791    0.69361472633259   -0.44215525294130
H         8.08253766589143    1.30020417163361   -1.13717608586990
H         6.56333154508818    2.12388508867684   -1.47025085918587
C         9.17840919480314    3.98111507915737   -0.52833267630174
H        10.02196902869406    4.54979129696752   -0.14190234919264
H         8.63722881744370    4.61660145759862   -1.23198274993007
H         9.55950801211513    3.12535072882468   -1.08256033574461
C         8.44885443777474    5.69387027991476    2.05311667272229
H         9.44575281032919    5.84181830512848    1.64520420601019
H         8.48871044860393    5.84850942207884    3.13001829420211
H         7.79148481161606    6.45530442560318    1.62892034313386
C         5.92276554454109    4.45226114507568    3.37287806399383
H         5.18330344629185    3.79007631995013    3.81495904200139
H         5.39253189828253    5.28006337074532    2.89810250324922
H         6.54142869390638    4.86883268534087    4.16610890541400
C         5.07073059194933    1.86240298208350    1.63907643435398
H         5.21869243060070    0.78535802270632    1.57522128489095
H         4.43803176792798    2.16242936737260    0.80204189428349
H         4.53548726735505    2.08637464705683    2.55805843880191
C         8.03470735394060    1.47259213238933    4.13279582822194
C         6.73931712107831    1.41531042801542    4.89748679851134
H         5.89148276825978    1.17484917215022    4.25974092818334
H         6.56079695005176    2.39770791358680    5.34431061339393
C         6.99218108082187    0.35466126295565    5.97816892897917
H         6.51574483641421    0.59421090916125    6.92430043130685
H         6.63353596208783   -0.61831111781633    5.64274155291162
C         8.51454795344970    0.35639236864695    6.08394588973371
H         8.88339753655621    1.03145473994996    6.86315927562184
H         8.95550817619368   -0.63028715927527    6.22727792847355
C        11.21312007611166    1.24518829994343    2.64258254556011
H        12.21318190646561    1.32244266401478    2.21464864062175
H        11.18993510322222    0.47228735367433    3.41525252588877
C        10.11125533841066    1.02863366081109    1.61531492416937
H        10.34550040924443    1.30514400884066    0.58869522926555
C         9.03358771500694    0.19470824233097    1.87971504975293
H         9.09190399236526   -0.48584457148470    2.72371531667214
H         8.43565559448833   -0.17296546510961    1.05132326658641
C        11.54386158744155    4.12542327362487    2.59121632587202
C        11.70819317194122    5.31523475193312    3.29801701158282
H        11.25288122862608    5.42643254596314    4.27237531857663
C        12.45861934803999    6.34478277239198    2.76054831287884
H        12.58754904097832    7.26101955248398    3.31609135955949
C        13.04323717210871    6.20116750626430    1.51221437245685
H        13.63049323484952    7.00399054427540    1.09441192253469
C        12.87342621944942    5.02454464652133    0.80043183436613
H        13.32693683017248    4.91098987039296   -0.17282710389849
C        12.12181966742321    3.99146494542395    1.33158579169190
H        11.99400480554053    3.08086850701040    0.76473889677253
C        10.92623461044593    2.93630706973967    5.07388604111113
C        12.15785557322564    2.50118537814511    5.54776153858407
H        12.87168259264091    2.06140017365785    4.86583570544660
C        12.45913177286555    2.63967755740164    6.89097099020973
H        13.41299526931813    2.30096589831303    7.26536650077657
C        11.54067113898899    3.21427418467401    7.75593561538417
H        11.78127818602725    3.32082559401620    8.80242187933857
C        10.31452771004039    3.65520506793062    7.28201780149073
H         9.60415580332415    4.10731046070805    7.95829225421299
C        10.00632555857665    3.51549032624740    5.94091651687393
H         9.05181456943704    3.84722961374478    5.54667938187167

