88
CSD_code = NIYRAQ | q = 0 | S = 0 | Stoichiometry = C46H33IrN8 | MND = 6
Ir       -2.27160675543605   -6.21687331952974    2.80175026758516
N        -1.96208164557021   -5.16185576603229    0.88134369093703
N        -2.90483765367678   -7.63772869526403    1.42163374322275
N        -3.35555193626627   -8.88171191398408    1.40490988358869
N        -3.20967970907488   -8.18420882227957   -0.71126810507687
N        -4.00105350058247   -5.16599677590368    2.87133729921194
N        -5.03523364744311   -3.21909390964388    3.17087480151744
N        -0.51801786350057   -7.23655298833281    2.88448301922926
N         0.75853397130749   -8.79772142918924    3.82796748612832
C        -1.53229823407107   -3.92629940502133    0.65766981054286
H        -1.21884209521292   -3.36880891004203    1.53134755027022
C        -1.46595233536693   -3.36727080841280   -0.60395297864509
H        -1.10594388812257   -2.35855171567447   -0.73281576206277
C        -1.86498754606602   -4.13509736919762   -1.69622303499436
H        -1.82054201488702   -3.72764362258874   -2.69579870790375
C        -2.31380600202025   -5.41735583520381   -1.47791076925938
H        -2.63717781956181   -6.06613495364379   -2.27541181574931
C        -2.35605672319160   -5.90764815463145   -0.16750100930931
C        -2.81760201196338   -7.22480541964664    0.14134367392690
C        -3.53008389207872   -9.18754246867231    0.11455924837334
C        -4.03290312964743  -10.50803174738444   -0.33925701056853
H        -4.24829964151223  -11.12559001874745    0.52838771342472
H        -3.28579968465139  -10.99916342820132   -0.96128537943286
H        -4.93646937217324  -10.38001176815790   -0.93345783628242
C        -5.27555674318030   -5.29961552356434    2.39028260168864
C        -5.93890041187277   -6.38457109468950    1.82606462620273
H        -5.44446885213766   -7.33571600441893    1.72295907680395
C        -7.24454724777042   -6.19383386202396    1.42591718278161
H        -7.78767180599891   -7.01508155985093    0.98365965863797
C        -7.88663442972847   -4.96284820537115    1.57582201547348
H        -8.90710599575148   -4.85686050115399    1.23967109448927
C        -7.25041635703782   -3.88026445216234    2.15086080876851
H        -7.74744654949686   -2.92938468357107    2.27053424637175
C        -5.94262836101087   -4.06925952511370    2.56850870623768
C        -5.27483335653509   -1.84863739167397    3.39491744834083
C        -4.49517023961076   -0.89344820018380    2.75134871696434
H        -3.68716696344850   -1.21264152258873    2.10956751902192
C        -4.75828405766613    0.44939185526753    2.94788145330621
H        -4.15099891707285    1.19153587069880    2.45208297965022
C        -5.80080828329446    0.84217846998774    3.77208076681448
H        -6.00439038299468    1.89165516696484    3.92097656717430
C        -6.58166721560237   -0.11103872487677    4.40374663898644
H        -7.39357162491995    0.19344466852790    5.04683650066920
C        -6.32331363704623   -1.45772199376900    4.21783482042178
H        -6.92012392115318   -2.20895977897900    4.71296169661171
C        -3.88156338646145   -3.92823392022881    3.34640402735010
C        -2.64515867120010   -3.58853202040853    4.00675145848131
C        -2.39538977799449   -2.40574932369243    4.70264039257690
H        -3.15320100968518   -1.64027091462922    4.78262713689877
C        -1.16905541580198   -2.21846723252156    5.30659207827137
H        -0.96742307485195   -1.30419491673567    5.84572878027695
C        -0.20074812657320   -3.20837785863248    5.22139384379363
H         0.76150445364915   -3.05584513664028    5.69094534006359
C        -0.46214428566042   -4.39128017811299    4.55071130005899
H         0.31130459812634   -5.14709322356630    4.51539420804641
C        -1.68580090804051   -4.63239439082304    3.92940052069047
C        -2.60250963764528   -7.35632871127127    4.43660667692407
C        -3.75447528209196   -7.42342812513996    5.21420487460917
H        -4.57002819871290   -6.73920591469512    5.02677445971857
C        -3.89130347486398   -8.36006731967391    6.22417858178548
H        -4.79889288330116   -8.38902301454328    6.81108459620356
C        -2.88098287263455   -9.27617155933078    6.47876131394709
H        -3.00371407882071  -10.02005890234981    7.25241614990355
C        -1.72064377771721   -9.24275941189265    5.73450796472600
H        -0.94671665683354   -9.97274961783776    5.91820968122549
C        -1.57138049147694   -8.28060563852578    4.73518852172864
C        -0.43220234528299   -8.13309208310667    3.86757433340995
C         1.30076250746155   -9.70422639573762    4.76212799973820
C         1.49050952938851   -9.30647908063489    6.08135995132676
H         1.17888366235468   -8.31904376987866    6.38766024626498
C         2.06261406912787  -10.18382912661956    6.98358463239623
H         2.20679106193248   -9.87771016548340    8.00866043280435
C         2.45516730772290  -11.44820364330204    6.57364004949019
H         2.90391657570045  -12.12922472279130    7.28074148152253
C         2.27185573674277  -11.83817536683046    5.25776673639300
H         2.57498840967585  -12.82368457710867    4.93778250409196
C         1.69612384645652  -10.96910668315771    4.34733129733113
H         1.53983788924484  -11.26663941076004    3.32138782628712
C         1.45808562658485   -8.30837800845780    2.74476649230040
C         2.71624546002182   -8.60994099487258    2.24865496642155
H         3.33907916620953   -9.35751941761759    2.71591270598049
C         3.13685454174992   -7.91126789691800    1.13433311127143
H         4.10818973007131   -8.12143472635790    0.71296609500190
C         2.33369219738857   -6.93594633321011    0.54161378857292
H         2.70226576515971   -6.41396324000728   -0.32873726849198
C         1.08784838953875   -6.62020233129289    1.04187032444902
H         0.47844223256384   -5.85778831648118    0.58664709070855
C         0.64037008288196   -7.31723014021687    2.15949239135413

