54
CSD_code = NIYTOF | q = 0 | S = 0 | Stoichiometry = C19H25AgN6O3 | MND = 5
Ag       -2.31097818633666    8.40645508080362    8.18529773102491
N        -4.42675803715782    9.34934880861455    7.95421655427549
N        -2.47202269509595   10.51106249113452    9.49726195843690
N        -1.78459888931114   11.21013711673405   10.38762215446591
N        -3.69303741305056    7.07442914144942    6.60307164619333
N        -3.65373341935374    5.94327419230667    5.91554288772805
N         0.20059888641573    7.23255349823341    8.51457051880092
O         0.00178626177675    8.06641372792586    7.61320086431213
O        -0.75547208723324    6.94516579973327    9.25968894873724
O         1.28082968243673    6.71912974413309    8.66342608195648
C        -5.30488184543911    8.81594501634160    7.10726370620446
C        -6.53160701318928    9.42574042285822    6.83818052474234
H        -7.22541194767779    8.97424400127649    6.14826547536039
C        -6.83403741522906   10.61912464864705    7.46875674457283
H        -7.77586418541737   11.11397222893169    7.28088619469137
C        -5.91254587422917   11.17348646253956    8.33854039461906
H        -6.11407330219740   12.10808413502273    8.83574450067558
C        -4.70778006822529   10.50275564763986    8.55707078390884
C        -3.69579525949303   11.03386337747689    9.45188047513425
C        -3.78128385094154   12.10857352007613   10.35485004477212
H        -4.62693330514826   12.72984659954099   10.56589555090137
C        -2.53583613224451   12.18848512050276   10.94142736623046
C        -2.04038127574277   13.13128898547206   11.97745424336883
H        -1.70858468115955   12.59591825834301   12.86655494167103
H        -2.84218247895185   13.80754204214078   12.26080519041834
H        -1.20643920296475   13.72359495103911   11.60119943573760
C        -4.92371247851962    7.56625843316257    6.47465866608621
C        -5.69177590928506    6.70543939984327    5.67026237125871
H        -6.71776524945123    6.80756885402528    5.38300806044688
C        -4.84342086795217    5.67187617519648    5.33324592111985
C        -5.10567305993116    4.47059269188097    4.49896796099986
H        -4.93631539591685    3.55548868731019    5.06566951002829
H        -4.46001584118754    4.45630911028379    3.62098001074281
H        -6.13961805991525    4.48350874503990    4.16534805255473
C        -0.40087286305098   10.88546622242229   10.67801744465154
H        -0.02786842168602   11.66304712768722   11.35324126932050
C         0.41227258079834   10.90604594226409    9.38756249365239
H         0.36306406335450   11.88761773099922    8.92057738381501
H         0.02937699221809   10.16824908019791    8.68429029789458
H         1.45109445688945   10.67242309066886    9.60142058871630
C        -0.33379883374233    9.53099942200820   11.37865845232851
H        -0.87498881443006    9.55935450886224   12.32235242828525
H         0.70034376474250    9.26504651072282   11.57682384045576
H        -0.77624329096890    8.75938928489682   10.75051418527677
C        -2.44267445004094    5.14616861019473    5.86601421170593
H        -2.64098687346152    4.31069053935017    5.18615724327078
C        -1.29681851142641    5.98629815578471    5.31094952002419
H        -1.52919809455875    6.33457659758324    4.30661677662910
H        -0.38778381538969    5.39318505758712    5.27356197363844
H        -1.11876284818831    6.85330894187551    5.94495712974940
C        -2.13643909604578    4.60340945148001    7.25945827901032
H        -2.94996483844448    3.97268029142615    7.61269070215468
H        -2.00441754962595    5.42360104944739    7.96352618868239
H        -1.22321295962089    4.01606526888904    7.23759411855084

