36
CSD_code = NIYTIA | q = 0 | S = 0 | Stoichiometry = C18H12AuCl3N2 | MND = 4
Au        3.66991718925007    4.74793674875447    1.62685549774693
Cl        2.31722215808324    5.71644380484276    3.18831343469668
Cl        4.19511290348559    6.72077549717582    0.74722117262581
Cl        5.21272363013738    3.67782333730777    0.30219041555593
N         3.31156241336395    2.91523744658228    2.48659815156241
N         2.03167351765712    3.63318323762191    0.17739607811274
C         3.81736990520517    2.61100295582170    3.66357567362122
H         4.26379247735201    3.41768843424114    4.22525316486856
C         3.78446057252297    1.31335969737062    4.17134806301376
H         4.20569978749391    1.11495734246711    5.14351095660164
C         3.23854967516941    0.31175361597119    3.40500454528894
H         3.23026181163382   -0.71168394358250    3.75027523953419
C         2.68505790726604    0.62179947352765    2.15241619674843
C         2.71524839329946    1.97324927793705    1.73529070785809
C         2.12372975144413   -0.36369716113535    1.29275677523681
H         2.12170740593662   -1.38888691393325    1.63085053345234
C         1.62661907523669   -0.02867571845812    0.07639880596167
H         1.22864367528420   -0.78364980665664   -0.58567391886912
C         1.60278477237458    1.32461146795461   -0.35471718597345
C         2.10888155680540    2.33637574450822    0.48832741048562
C         1.08768698879723    1.73346227168278   -1.60147425290261
H         0.70891464827323    0.98822414780883   -2.28638872053842
C         1.06869360115831    3.06314041415933   -1.92324710767912
H         0.67596418519827    3.40358101787590   -2.86843459707728
C         1.52756983894321    4.01250877430393   -0.98253127256753
C         1.44887137952078    5.45113580075697   -1.22943369437156
C         1.75784217902477    5.98468095505884   -2.47941504238083
H         2.06615146019721    5.33129664528236   -3.28277472581497
C         1.72725523191104    7.35228503808873   -2.67303149082040
H         1.99094365569489    7.76267142257465   -3.63650024447296
C         1.37297308943366    8.19698789645072   -1.63318006137537
H         1.35776476610011    9.26545404426374   -1.78745648993772
C         1.04730986001118    7.67173641666132   -0.39363409297166
H         0.77577735676805    8.32541350007970    0.42080307591975
C         1.09012802298394    6.30682346138569   -0.18832891423609
H         0.83393515697587    5.89109365525097    0.77393591310991

