57
CSD_code = NIYZIH | q = 0 | S = 0 | Stoichiometry = C26H27NO2Pt | MND = 4
Pt        3.09693790877351    7.04636291740835    3.52762259256760
O         3.52604007380631    6.55520303498116    1.62911700160824
O         1.25521569234433    7.85177280025319    2.79807636725981
C         4.77251981017609    6.31818519733284    4.30661292657992
C         5.82572729992420    5.69188350302305    3.65141191927491
H         5.78071783014429    5.56325319800287    2.57960582177145
C         6.92838168584793    5.23237102692350    4.35334404884992
H         7.73930659317941    4.74770566748874    3.82790265058946
C         7.00170591481254    5.38876239240149    5.73049153739463
H         7.86474146423330    5.02648941691878    6.27008430170054
C         5.97224763570254    6.00670167151756    6.41174101415888
H         6.03537762971034    6.12449681345643    7.48375831629550
C         4.86149792127866    6.47126418665674    5.70881107116380
C         3.71364584778224    7.13708075534287    6.30229758397079
C         3.53776964944204    7.42197763871776    7.65487534397725
H         4.30033346691882    7.13901749391734    8.36205439656096
C         2.39128585851165    8.06363023008475    8.08218559855626
H         2.24551528398715    8.28863302749586    9.12773138227957
C         1.43045366230949    8.41340735459157    7.14167211263442
H         0.52210812043377    8.91520715402706    7.43343586012423
C         1.65802100836759    8.10592660453342    5.81417196054042
H         0.93638453576737    8.35944059209354    5.04894249697211
N         2.76195417635534    7.48719912357897    5.39745408085952
C         3.45172363208639    6.23871485862962   -0.69677268162755
H         4.42628122359199    5.81127644083353   -0.47434405952703
H         3.56494288336041    7.05605932229872   -1.40546556949407
H         2.81895718640731    5.48222911029456   -1.15585596760877
C         2.82459784594574    6.73859844528002    0.58822675907347
C         1.56278512396758    7.33930154764025    0.49889116478168
C         0.86163371659397    7.85392409734790    1.60368576791265
C        -0.49746325611179    8.46999666692054    1.34371297276400
H        -0.92410581684232    8.81615100358148    2.28234540417336
H        -1.16175956715126    7.73769178419496    0.89060946777410
H        -0.40530770341959    9.30826213577793    0.65643703364148
C         0.92201832361089    7.43279136309042   -0.83985679007276
C         0.11356205057861    6.40713305836150   -1.31465569837800
H        -0.04392061712551    5.52928544815058   -0.70293511042601
C        -0.48784473064116    6.49832452482587   -2.55410494662448
H        -1.10820797030556    5.67891221279880   -2.88596271217317
C        -0.30984440944981    7.61359237892330   -3.36941311920748
C         0.50204627883204    8.63364534281556   -2.88959791492227
H         0.67733199126534    9.51959036911567   -3.47830947583236
C         1.10724627123902    8.54530296218205   -1.64780276167694
H         1.73428284127957    9.35503295742853   -1.30015547542875
C        -0.99641539063844    7.66704750702515   -4.72531832882159
C        -0.70565097355275    8.96448560395161   -5.48441674236690
H         0.35851042566030    9.07370517984474   -5.68050005204076
H        -1.05715450996037    9.83063871225779   -4.92821159464729
H        -1.22313312775291    8.94786299914933   -6.44166983198736
C        -0.50352120292188    6.49159637173741   -5.58102635515905
H        -0.97025118104611    6.52101540847616   -6.56347751785258
H        -0.74270712119633    5.53759994322675   -5.11932278612424
H         0.57567157206613    6.54689921953821   -5.70936038190477
C        -2.51482373791261    7.56265755264973   -4.52356932952336
H        -2.86861407733477    8.38256067916372   -3.90171424946472
H        -2.78801883927736    6.62792124388884   -4.04207921950181
H        -3.02473620346858    7.61242174793092   -5.48341028332892

