60
CSD_code = NIYZUT | q = 0 | S = 0 | Stoichiometry = C27H24F5NO2Pt | MND = 4
Pt        2.98464720690638    2.08072272363675    3.28073662332040
O         4.57931472286470    0.71976984146253    3.08860799973796
O         3.99961341352856    3.33137949729298    2.10009130842607
N         1.92825147883969    0.93028900943400    4.44316793730759
F        -1.72916222598542    2.96877824542537    5.39683552798615
C         1.41931555195312    3.27291317466327    3.53038675363362
C         0.72065746807309    1.39599945430531    4.86989923176499
C         0.41027363143785    2.71963428532091    4.36182493991764
C         5.63521238714392    0.88347911684506    2.41924497719669
C         2.34650512583694   -0.27073225640537    4.83019996135069
H         3.31318991512424   -0.58943812092663    4.46067135781352
F        -0.11644771976864    6.45840666556808    2.73848349096443
C         7.26141238193664    2.03507848535039    0.94026403764220
C         5.96429214393273    2.02568013606178    1.66866241109380
C        -0.74630161979079    3.46140479685613    4.61147616091407
C         5.14017222929573    3.15162584070289    1.56554464500305
C         1.59367969206737   -1.07994430275313    5.66353231306091
C        -0.93753107631526    4.71648608011710    4.07453947787336
H        -1.83661959311920    5.27410395542709    4.27820817077004
C         0.35350348616927   -0.62807926710557    6.11522618479877
H        -0.24832223042278   -1.24318865531033    6.76568580452028
C        -0.07820787072737    0.61869330124165    5.71085427671898
H        -1.03138486019350    0.98840603586858    6.04657377025207
C         0.06346333496798    5.23387096090213    3.26636176855840
C         1.22512368486626    4.53785094978067    2.98989869966754
H         1.97586704566171    4.98137884584506    2.35463374184429
C         6.62509486699601   -0.25780942456546    2.43640627422757
H         6.23790068820027   -1.06767344163070    3.05036089736513
H         7.57830395924839    0.07944586526214    2.83789911676813
H         6.79932403208064   -0.61849540037794    1.42489676295292
F         2.16357117811454   -2.54527614616634    7.42421412105098
F         3.30226977092608   -2.72484518007898    5.60786839699247
F         1.26709407897776   -3.41782582323645    5.67795796182550
C         9.71887401638171    2.04237043802442   -0.43794972900525
C         8.55261021611421    1.57264738460360   -1.03775594219031
H         8.57721562472091    1.20143834234849   -2.05146645601620
C         7.34685434975640    1.56709912279927   -0.36512944053450
H         6.45782071444649    1.19544535021345   -0.85598794417072
C        11.02263158012509    2.02287042283519   -1.21996957865008
C         9.62408505274091    2.51121642019534    0.86640874471529
H        10.49387445326666    2.88858804990892    1.37909133623045
C         8.41718360071516    2.50776806733515    1.54423380065923
H         8.37278503804628    2.87876476029982    2.55914765063853
C         2.08728290853182   -2.43324834783521    6.08648413851014
C         5.63492206102748    4.30757744787009    0.72606290825363
H         5.79854658732889    3.98525750097089   -0.29975314603418
H         6.58127640695225    4.67665156108516    1.11476003803025
H         4.89725487276498    5.10553875114041    0.74409945721841
C        10.86790818040105    2.89942729646441   -2.47108578560598
H        10.62981764261395    3.92264342408980   -2.18666991785582
H        10.07505573621259    2.53246127492011   -3.11732859108574
H        11.79512238915543    2.90630108948247   -3.04006053797335
C        12.20676808402307    2.55438206603360   -0.40752187828803
H        12.05037702458040    3.59120021217869   -0.11814548133123
H        13.10993770168772    2.50833967122244   -1.01260318909465
H        12.37050139888270    1.95457078312559    0.48507565974498
C        11.33737141245297    0.57750969023216   -1.63227275661189
H        12.27695895663906    0.54031584648945   -2.17935931420215
H        10.55822812164613    0.16696464356936   -2.26841869477053
H        11.42615958996952   -0.05419051840074   -0.75060045389096

