147
CSD_code = NIZCOP | q = 0 | S = 0 | Stoichiometry = C58H70N6NiO12 | MND = 6
C        20.66808179337791   13.49186946492514   20.99794690921532
H        20.85731499558350   12.65085701779804   21.67456908359340
H        21.50439741261587   14.18307725768369   21.06719999675343
H        20.62333548294836   13.10689390389630   19.97357558676722
C        18.23331495611106   13.65938425030735   21.41068856409225
C        18.00984190410382   12.30939715676936   21.04270266427737
H        18.85100255383923   11.71957414408356   20.71772153764092
C        16.76683578053313   11.72119823555246   21.07970415949166
H        16.61561945446715   10.69325437603681   20.79198710964780
C        15.71551316533089   12.51630501663371   21.49949469236692
C        15.89683700690215   13.85802815216379   21.86830872113029
C        17.14986455456202   14.46919645900539   21.83953618086992
C        17.32647375940955   15.89544190695701   22.25580223575122
C        13.81669628502557   13.37103509212995   22.02886591637096
C        12.34074357143272   13.43027700962408   22.13764134668445
H        12.05516361240354   14.13375005441752   22.91745657448569
H        11.95147627074873   12.43300981505212   22.33947141501928
C        11.79499004858783   13.93663638789096   20.79055451719924
H        12.30825338486991   14.87578216461055   20.55019918370092
C        10.28931643173008   14.21838448576564   20.77806009623232
H        10.07731766830931   14.98668937459797   21.52523619352088
C         9.46046039234604   12.97140698910658   21.07292358105032
H         9.82699726322278   12.12766367326444   20.49376819393941
H         8.41688106113099   13.14475528905950   20.81912360599853
H         9.51519752434177   12.71564672708412   22.12856199312138
C         9.99998037019325   14.81359458583970   19.39597956781181
H         8.93162300057358   15.00919333836672   19.28321590611901
H        10.52762572646013   15.76577132903260   19.32814956887165
C        10.46600111513509   13.87791679810558   18.28250262962922
H        10.43032529224180   14.39169348223907   17.32142496852111
H         9.80693572027155   13.01228975084916   18.23808135325994
C        11.90959289846540   13.38702493769147   18.49719217526357
C        12.23177889955285   12.17393121431185   17.58861666826996
H        11.93773674380299   12.44477312695573   16.57033571425445
C        11.48110560591034   10.91227802315352   18.00759214641131
H        11.81925585775999   10.07190245901971   17.40471633409254
H        10.40827016539749   11.01604153193313   17.86846411030705
H        11.68202945965556   10.69569200460204   19.05291147837310
C        13.73752860555729   11.90817392765714   17.63092277664849
H        13.98552252829261   11.09732377862688   16.94158642790606
H        13.99891061974656   11.58849776758493   18.64205613147728
C        14.54393620276616   13.15926256795061   17.27549127104830
H        15.60330044657839   12.92894685752274   17.42118580266618
C        14.30230177574750   13.58447594810738   15.82672916988839
H        14.33184132538295   12.71673546405036   15.17100874469673
H        15.05776948874852   14.28901785579457   15.48920651405980
H        13.32986534166950   14.06070284353995   15.73385083470425
C        14.13231490485379   14.25703328159845   18.27213524378669
H        14.37608355032638   13.90980355107104   19.28653132185606
C        14.83143724993871   15.60677654059730   18.03950752495476
H        14.37931309148254   16.07934951042331   17.16528925862532
C        16.34777211844676   15.45308144468108   17.85240661134084
H        16.81243517697818   16.43469595153610   17.78010175309982
H        16.58898509511270   14.89977821921098   16.95082574881481
H        16.77314277416539   14.94152436872758   18.71346008733900
C        14.71117786413214   16.54147704887726   19.23534058658410
C        14.17240226818096   17.86807113321075   19.01164049838753
C        13.02320658352327   18.28091320278193   18.36593819399069
H        12.36079427456481   17.64252812174505   17.81702920117504
C        12.85546654058722   19.64577771749131   18.63458321332731
H        12.04839659102293   20.26625885776191   18.30014920851157
C        13.91173094306160   20.04287070522673   19.41426340318533
H        14.17438582816989   21.01078845403165   19.79593863949677
C         8.39903668058728   19.09889727529934   23.97559651558620
H         7.87225503045567   18.45436983027141   24.68868836256814
H         7.75113846838602   19.26423336848170   23.11830073979020
H         8.58637085882414   20.06456606715497   24.45672726792936
C        10.64612432234701   18.11304120224681   24.29442241159227
C        10.63813752005237   18.37402632056610   25.68730875824512
H         9.78633679542643   18.88082837579327   26.10995233460483
C        11.66758990857381   18.00628889321758   26.52254275184758
H        11.64250093279429   18.21216249368108   27.58048580869168
C        12.74185561562222   17.36057621926851   25.93709281252420
C        12.79111723274425   17.09683944463089   24.55977934868321
C        11.75264934097584   17.45245897809548   23.70088813044921
C        11.80546751387888   17.11736412624043   22.24246008428006
C        14.60093372321735   16.39119676026879   25.46475296959659
C        15.97427317330312   15.89646313483861   25.71779157626717
H        16.21454927539421   15.10087823373817   25.01489062077426
H        16.05138206104436   15.55266935816478   26.74873729454401
C        16.94452368760399   17.06851827782726   25.48957614003985
H        16.74069069173247   17.48581660199748   24.49576386226314
C        18.42837145717050   16.69076298789347   25.53398960944425
H        18.61706151549095   15.94235736117516   24.76052597021575
C        18.84886090176937   16.14060868478544   26.89371023697300
H        18.46362315110487   16.76975177360154   27.69198297622707
H        19.93379790683431   16.10598895058653   26.96605755674308
H        18.46649824448808   15.13212371803700   27.03349453152298
C        19.18025655651903   17.96906597633554   25.14759726105080
H        18.92407541412819   18.20066730446204   24.11302335686930
H        20.25876956524677   17.80587223429345   25.20047060174680
C        18.79971117956682   19.13495695376252   26.05888729065652
H        19.24428715518544   18.98289839309731   27.04116885643915
H        19.17891781925944   20.07119873909922   25.64815851915098
C        17.27615238271720   19.28233915607403   26.22918682902175
C        16.92928788058975   20.19208707507372   27.43452494028138
H        17.50513506047703   21.11506953553333   27.31937630655974
C        17.27506538680723   19.54892263604489   28.77524912380449
H        16.79528482147202   18.57722681209874   28.85046942054021
H        16.91417363539247   20.18058522935352   29.58439461691349
H        18.34746511592144   19.42392389729316   28.89934447838983
C        15.43451657110126   20.51507562308940   27.39695622556008
H        14.88231817132801   19.58817256889066   27.56677870572647
H        15.19002346970194   21.21098757089551   28.20323325720225
C        15.01442323354585   21.10974581020761   26.05090417156462
H        13.92554893878174   21.21331467370191   26.05521790292785
C        15.66030063614192   22.47539648473896   25.81652309568012
H        15.16706139711968   23.01208948110093   25.01038612683796
H        16.70766371530276   22.35439099696694   25.55287543172885
H        15.59343709894440   23.08157216743238   26.71754163155898
C        15.41132390827776   20.09321280272161   24.96595865359716
H        14.87416364124057   19.15483543689650   25.16307160641139
C        15.07979810351476   20.55118826820511   23.53496841863157
H        15.78953128867344   21.33459552679160   23.26010813751808
C        13.63503971410550   21.05205765719720   23.40991538289252
H        13.40800517247816   21.26616113321169   22.36699407294799
H        13.47102705288272   21.95745597395214   23.98504890326850
H        12.94793898278276   20.28018645869678   23.74993661624841
C        15.18508880316112   19.41679132754487   22.52461780550265
C        16.20550151808485   19.49737224163878   21.50068357298041
C        17.55834277534341   19.76041820585167   21.57659328337512
H        18.07556816980654   20.06493611407993   22.46383365899978
C        18.11264832935209   19.47641626523520   20.32101118903451
H        19.14695313859169   19.54939205037147   20.05112965061279
C        17.09003981237611   19.07310435660073   19.50117774050251
H        17.09038210812055   18.81403965930497   18.45994728841158
N        19.46848420740548   14.19655074306897   21.34694548486847
H        19.50445340681980   15.16550578584235   21.67368281940549
N        14.65139583546135   14.35587124536183   22.20242024386589
N        14.69080175587402   18.96068415243163   19.66887433459949
N         9.61786903838543   18.50028033947697   23.51291655150138
H         9.71698272973937   18.19939554015240   22.53994111062579
N        14.00089903622465   16.47624345463307   24.31127607985477
N        15.94091357307992   19.05032302842567   20.22490286743345
O        18.46259286006758   16.39698680563265   22.28297325290103
O        16.31926462416546   16.57188189432175   22.63453483128127
O        14.38548082651055   12.22971702968936   21.62165182290090
O        12.73624594170369   14.49545124319262   18.16975774561087
O        12.13044125258963   12.95871306411885   19.81592964507374
O        15.17203980134767   16.23799774430866   20.32994548914051
O        10.82285372560850   17.34998036794154   21.51991216612826
O        12.83158892606939   16.53973276539241   21.76505312551338
O        13.89969825929743   16.89055426365202   26.48968428272020
O        16.65157800683342   18.04911075605060   26.47464534342632
O        16.81115513111489   19.86102589889643   25.01698152399585
O        14.36082160256245   18.50724782894883   22.49600571018712
Ni       14.55075734695416   16.44875270644687   22.29952191871410

