48
CSD_code = NIZCAC | q = 1 | S = 0 | Stoichiometry = C17H19CuN5O4S2(1+) | MND = 5
Cu        3.41903294542568    6.57088481288932    5.54266476568695
N         5.07499053996823    3.19906320262227    3.59137649103839
C         4.67816419245068    4.22779357390072    4.18181400802194
S         3.35434558987093    4.37343800943455    5.39251030064913
N         5.31044269702725    5.42756814034279    3.91645478781676
N         4.93009019789264    6.55235832953837    4.50132740158261
C         5.54434092084183    7.68862071503916    4.38280627941671
C         4.90122555430697    8.78920178349394    5.07150384157015
N         3.79089555201338    8.45756109157568    5.76148857845075
C         3.08019167542506    9.36809038373927    6.39603412628559
C         3.43152826937799   10.71809405950283    6.41439058451062
C         4.58571637687662   11.07694460077164    5.71985313036866
C         5.31926429084612   10.11960136396915    5.04414958085370
C         2.60656688229724   11.70741049085954    7.15591273856746
C         6.79865722979827    7.82429619547620    3.58541576596825
C         4.50903370162524    1.90614202454146    3.78282853476540
O         2.02285668432706    7.07419341993970    3.79017906043481
N         2.06700776039285    6.45909299358492    6.72722856156378
S         0.45820447516136    6.56342160108226    6.28283497353914
O         0.14037488094900    5.52675215423456    5.35309976623471
O         0.25909484726428    7.90922382904237    5.79659904979377
C        -0.13401928196096    6.32880056695253    7.94273219322329
C         0.97718120254487    6.27096643548565    8.77310071063497
C         2.28222243706794    6.38557639262235    8.05952437196718
O         3.37553506470140    6.42351818111544    8.57747243636297
C         0.81632557791155    6.09775448120022   10.13851736421665
C        -0.47338116495988    5.98292985028502   10.63959317960248
C        -1.57469749270040    6.04255919659966    9.79751658460597
C        -1.41635785814055    6.22004653072331    8.42587490207948
H         6.08195529675660    5.41252591108950    3.25432770271266
H         2.18614029649019    9.02078476861960    6.89410153927378
H         4.90254352373095   12.10904102248072    5.70064300094729
H         6.19778288325046   10.40793058221689    4.49108893421278
H         2.70856288767176   12.69982992097709    6.72486620198934
H         1.55945499421165   11.41626645355084    7.15380565672941
H         2.93751678927823   11.75795899755445    8.19388728317212
H         7.50195065660072    7.03431924800177    3.85111074788332
H         7.28121405352000    8.77787820169827    3.76581542972454
H         6.58196952906489    7.74625665337316    2.51875012967164
H         3.61108887024414    1.92080086864907    4.40529076138579
H         5.26565875457304    1.27136731595943    4.24542783864681
H         4.28600482816065    1.49270607394192    2.79941695827093
H         1.34026181491875    7.65017824787101    4.17586786128614
H         1.54298073766424    6.27434885732888    3.53172365815306
H         1.68372320245447    6.04922474861983   10.77797214817192
H        -0.62093245753397    5.84209103386553   11.69927422423018
H        -2.56837126489267    5.94772273996606   10.20697933432054
H        -2.26403914474509    6.26576394368446    7.76144651940463

