37
CSD_code = NIZGOU | q = 0 | S = 0 | Stoichiometry = C10H20N2NiO4 | MND = 6
C        11.92482228289279    1.84714358380692    9.87260536864232
H        11.40935153914448    2.44856331389860    9.12931003433647
H        12.71468480842954    1.27375903441447    9.39333464044378
H        12.37887000765433    2.50008407460162   10.61449723923700
C        10.93434786164323    0.91229028696575   10.54405295537653
C        11.43660202273171    0.02873002161069   11.50268094497028
H        12.49084822149655    0.03715950498367   11.72806966170120
C        10.59977873654663   -0.86498956614256   12.17563047446471
C        11.24316960963348   -1.78635163385176   13.19687111933002
H        10.47978805401898   -2.40753510868360   13.65660593609292
H        11.74646000778191   -1.20140556055668   13.96311782947913
H        11.98162212377206   -2.42007308682130   12.71101911586663
N         7.84724190371497    1.71733916910568   12.54882579958471
O         9.73550899722790    1.00443499549824   10.18710973075156
O         9.36122978125382   -0.97628670107237   12.01205386678973
Ni        8.24561675742271   -0.00002253339961   10.81859760300901
H         6.90906760196224    1.64134068259503   12.92172555746368
H         7.96133353695832    2.62426712651237   12.11259733376640
H         8.51092460209675    1.62474608053189   13.30772852931253
C         4.56656102462420   -1.84737488618935   11.76463062398550
H         5.08214805665366   -2.44892486599917   12.50773120616208
H         3.77679324297819   -1.27406445808373   12.24414523613822
H         4.11237012477585   -2.50018020187482   11.02271291261104
C         5.55695162143813   -0.91244111876559   11.09317342129369
C         5.05461318607137   -0.02880872273735   10.13465352101713
H         4.00035278641764   -0.03724099966910    9.90933321537514
C         5.89138392496784    0.86496466160708    9.46170942726756
C         5.24790195205005    1.78635197340537    8.44055245647608
H         6.01133569088792    2.40715089750323    7.98035317529075
H         4.74399515834963    1.20144211786906    7.67466696555865
H         4.50994138989412    2.42047174203348    8.92666060252473
N         8.64410753652092   -1.71704790888608    9.08805643943804
O         6.75580906748997   -1.00453791030041   11.45005980007824
O         7.12995112435095    0.97625338355746    9.62518918160599
H         9.58229533318985   -1.64084428390810    8.71523532795219
H         8.53005720568960   -2.62413671385372    9.52395549549455
H         7.98046311726817   -1.62422638970596    8.32914725111243

