113
CSD_code = NIZHUB | q = 1 | S = 0 | Stoichiometry = C60H48AgP4(1+) | MND = 4
Ag       -2.37629627795360    3.45135513158193   13.58570600287409
P        -4.80458093961837    3.18414903709118   14.45331929620253
P        -3.41403946675534    5.67409262077576   13.13743364604415
P        -0.64849200576168    2.92636616725948   15.44550826158849
P        -0.97235908088119    1.64336316022330   12.59667920486520
C        -5.79767827129433    4.25651784138432   13.36413311461209
C        -5.17044651452530    5.36535398158489   12.77675776685338
C        -5.90143001604518    6.20844314708325   11.94580191528878
C        -7.24147040870470    5.96409230991946   11.70411232009601
C        -7.86434826176016    4.87505882618447   12.29186706303764
C        -7.14708670533076    4.02625919066069   13.11617534949594
C        -5.06343309358476    4.02798053227177   16.04996619192912
C        -6.32722032816074    4.46756097610195   16.43411890527547
C        -6.49075436040308    5.11464887172221   17.64411961478263
C        -5.40175267186133    5.32887136303204   18.47493706854529
C        -4.14366157675115    4.89203736260675   18.09626389576110
C        -3.97546916906177    4.24440528258354   16.88675221670088
C        -5.81640300119922    1.68353518465037   14.61362595136543
C        -6.10693172034597    1.12271863324474   15.85266025426052
C        -6.76982469879256   -0.09023863451196   15.92043885524483
C        -7.13280187902429   -0.75425321039215   14.76037048172298
C        -6.82615408843958   -0.20829940206418   13.52264167395575
C        -6.16039053468379    0.99957449587004   13.44788678304879
C        -3.50403437106104    6.63881011599309   14.67677529723873
C        -4.66030775972476    7.27094410985387   15.12028409778949
C        -4.64103579581548    7.97362943644922   16.31164333542254
C        -3.47811254121320    8.05092717926623   17.06065584038220
C        -2.32375590475934    7.42317251162232   16.62058060829849
C        -2.33860500195535    6.71629807455377   15.43427338888726
C        -2.95652479170566    6.90726379150893   11.88423899934881
C        -2.64256249970794    6.41081857557954   10.62011314913860
C        -2.28654939521888    7.27645873451457    9.60456741272548
C        -2.22602876756877    8.63982674744188    9.85122678976914
C        -2.52088606849181    9.13383924928697   11.11160351932318
C        -2.88536968982957    8.27332211706670   12.13261017964398
C         0.85494498949522    2.42856578531750   14.54287660399210
C         0.70398419354020    1.85706927178018   13.27065052520233
C         1.83014643987540    1.45604365037415   12.55891065273899
C         3.09320099833976    1.60969028631150   13.10195650941807
C         3.24274158997971    2.16559247267821   14.36215808275014
C         2.13095431987213    2.57309949912079   15.07791526723172
C        -1.02340067443970    1.36736302726852   16.31588165728093
C        -2.33171522890129    0.89986817840708   16.33730078139929
C        -2.63873185872677   -0.28478923240153   16.97993452969702
C        -1.63765181376113   -1.01001943501981   17.60355392533402
C        -0.33076999291203   -0.54758705418582   17.58585241287130
C        -0.01937620324617    0.63626907392012   16.94471321163147
C        -0.01706703874160    3.99497015945561   16.77249865458493
C         0.72077319023814    5.12142607447533   16.40954546305781
C         1.12232488660927    6.02768452200947   17.37147592691806
C         0.77079101885428    5.82982679510770   18.69860726268179
C         0.01564572046678    4.72599918006624   19.05890411889627
C        -0.38566515465905    3.81143164101106   18.10090040816626
C        -1.45929217605212    0.03226265593457   13.28621828368748
C        -2.81969243348590   -0.26333801553877   13.27998471573610
C        -3.27514099530603   -1.46214492317224   13.79235576770671
C        -2.37210373412716   -2.37023323624601   14.32177323377261
C        -1.01775538393320   -2.07884299351074   14.33285062315711
C        -0.55555311211762   -0.88157501967880   13.81663212527007
C        -0.66106646528058    1.28265362307881   10.84345670307528
C        -0.44775971502457    2.38505724330337   10.01754956499039
C        -0.20306926221194    2.20451648354789    8.67031415304219
C        -0.18688894768869    0.92374966867178    8.13876557791792
C        -0.41503344656608   -0.17244503159451    8.95479438081210
C        -0.65396414635603   -0.00008099612717   10.30714864826843
H        -5.41721532181642    7.05875736169365   11.48622586511701
H        -7.79905476480612    6.62442461185221   11.05762396352795
H        -8.91069827727274    4.68441797920146   12.10744821184810
H        -7.63831645967064    3.17216271029504   13.56156737503949
H        -7.17738602175171    4.30257895339124   15.78717462248504
H        -7.47162377717288    5.45445306861469   17.94110593195238
H        -5.53602751957436    5.83690908557659   19.41766119747075
H        -3.29117359658198    5.05745741185128   18.73802777587209
H        -2.98844792279566    3.90730316999087   16.58427775753578
H        -5.82221414256124    1.63905066174752   16.75937486968906
H        -7.00488743443313   -0.51831271518312   16.88363746121168
H        -7.65131357464614   -1.69921102683774   14.81882601875014
H        -7.10375363347482   -0.72758967851917   12.61725454911261
H        -5.91300445048696    1.43026378083039   12.48466574250820
H        -5.57056573950025    7.21223477581361   14.53974459060808
H        -5.53920014042114    8.46353088418729   16.65652383063577
H        -3.47270001874278    8.60066844506010   17.98944896107000
H        -1.41633162391088    7.47697921483517   17.20367006639287
H        -1.44395796410557    6.21288853161300   15.08305981321782
H        -2.68847930413156    5.34084212682832   10.44568654028074
H        -2.05194781737500    6.89254647795401    8.62302797180815
H        -1.94393669323693    9.31761913410162    9.06015654323682
H        -2.46772355885095   10.19536348475247   11.30138649834297
H        -3.11520322270817    8.65861872719240   13.11617419610619
H         1.71525621295448    1.02226926937569   11.57535055712107
H         3.96009126176765    1.29464244207113   12.54148034104172
H         4.22710640580980    2.28408845710482   14.78900148997920
H         2.25771325273044    3.01650932086541   16.05591979273105
H        -3.11399967014468    1.46683744010925   15.84139665374365
H        -3.65821387911572   -0.64049678044842   16.98855511513844
H        -1.87368690653408   -1.93655768681666   18.10423533713396
H         0.44884556788791   -1.11313102825055   18.07383688607637
H         1.00041417022794    0.99458343389011   16.93111899995788
H         0.98700832964199    5.27177187994152   15.36982703956744
H         1.70634912301542    6.89090242137982   17.08829126568111
H         1.08318463553234    6.53890863070355   19.45015985758577
H        -0.26157424829651    4.57530423239514   20.09172078723373
H        -0.97701447554864    2.95104323246984   18.38346175890390
H        -3.51699416639419    0.45999122418321   12.87046446517549
H        -4.33218891991181   -1.68329630193822   13.78595184626133
H        -2.72382692904034   -3.30630771054795   14.72791544284304
H        -0.31608018075861   -2.78789359792037   14.74578544784502
H         0.50218858514825   -0.65795587769851   13.82869661181869
H        -0.47072525858578    3.38082585573851   10.44801507278149
H        -0.02992930771515    3.05811684711514    8.03215205932819
H        -0.00105384972877    0.78079807264440    7.08528935093342
H        -0.40636083107345   -1.16782227402159    8.53669723375253
H        -0.83215784741653   -0.85527554580962   10.94399801066211

