35
CSD_code = NIZNAL | q = 0 | S = 0 | Stoichiometry = C7H16CoN5O6 | MND = 6
Co        2.13211987682101    1.27780291937148    3.40906134852286
O         2.67218314963628   -0.42044876299718    4.20101912052753
O         3.47243095786574   -1.42728039105844    6.01127408433751
O         2.33776757234804    3.80119570980202    2.97106721172468
O         0.66982156511273    2.85169722686436    1.99149310489875
O         3.22916767243930    0.73861272533882    1.17946960195865
O         1.28267066314639   -0.14290438741249    1.46742092317319
N         2.18180051172556    1.89840236905736    5.50548879872400
N         4.12348150800623    1.78914280168295    3.47194530884123
N         0.16498178468965    0.79050262619810    3.72351643676397
N         1.66619174697932    2.81664893243226    2.69320704749723
N         2.21773682724315    0.53370292944112    1.80163981717378
C         2.91294853521392   -0.51350299740841    5.44468516992229
C         2.37446050073700    0.67989100269810    6.30369914725340
C         3.39994748062818    2.72194533927997    5.58812947702533
C         4.54530747851407    2.02695569343061    4.85752173765490
C         1.03450909911225    2.68671494682555    5.98241113268168
C        -0.32610262921767    1.99979758983922    5.84563423086318
C        -0.74968840152969    1.71228247296038    4.40796255342660
H         4.70529093144182    1.06979406401312    3.04211336541430
H         4.25485483546177    2.64619531630290    2.93047832925281
H        -0.21767595529364    0.58672239175246    2.79615279678828
H         0.18625542706561   -0.10325126647539    4.22009308516921
H         3.05219985670742    0.84749852387084    7.14683850002317
H         1.42719425874886    0.33070890396445    6.71350775058378
H         3.20586578557744    3.67966062808196    5.09978956004437
H         3.67334811090874    2.90929964035904    6.63560284133767
H         4.76955282685296    1.06789691843764    5.32844440602850
H         5.44358333127258    2.65237275135365    4.90214293125434
H         1.18439975705946    2.94699028644170    7.04075438558240
H         1.01011027005205    3.61705643854734    5.40855129933198
H        -0.35104473234380    1.07001478790871    6.41664188821196
H        -1.06842736789776    2.66576954779384    6.28881428112312
H        -0.79252166687878    2.64046501211236    3.83384745210557
H        -1.76102156820628    1.28694730918971    4.42778087477768

