98
CSD_code = NIZNEQ | q = 0 | S = 0 | Stoichiometry = C33H50B10N4Zr | MND = 10
Zr        8.66292884110770   14.53903616443758   16.21666776968944
N         7.75802747723620   12.58222673006236   15.65820652368138
N         5.85264693997485   12.55533273543929   17.08049435206452
N         7.95139504293029   14.88522340338422   19.63831520337413
N         9.78660708849059   14.83327549449154   18.11965326637075
B        10.33029851522174   13.54697272466120   13.53164756388069
H         9.21466022514653   13.32042751275393   13.21699908999780
B        11.54458276505950   14.25070428669736   12.46212726930762
H        11.27230991556735   14.49376702595361   11.34470669942890
B        12.48940404811553   15.39007490842596   13.41005098730703
H        12.85281914062562   16.39907956297959   12.92853398187179
B        11.85258643496927   15.37577771215687   15.06383332101666
H        11.74151294062159   16.33630433505360   15.74080240934064
B        11.16713480960332   12.65052222271050   14.78671360078073
H        10.59609285013645   11.76459451282762   15.32206821393995
B        11.78284660926621   12.62199084208136   13.12386106342101
H        11.71876547180903   11.66157827171061   12.44482805089527
B        13.14323054138853   13.77817256223557   13.05527977452133
H        14.04881760407894   13.64011849216427   12.31411428588379
B        13.34744830090414   14.49880125716415   14.67450809814659
H        14.38815821633689   14.86015685116262   15.09135746060134
B        12.11640079875657   13.77869257978774   15.72006731873801
H        12.21977470703315   13.66815045688202   16.88762981143621
B        12.91366686828773   12.77297707508238   14.49738421227942
H        13.65331849037780   11.90697614325634   14.79908561899975
C        10.80807311399535   15.17594128720352   13.72691528221486
C        10.56507034155674   14.24894527964761   15.07960317125406
C         9.76842576866090   16.29107996284439   13.43266403314135
C        10.41369777552457   17.69158380331937   13.40458883559403
H        11.00558261895588   17.88932944623287   14.29225370627202
H         9.63107620785628   18.44563885039914   13.33705022517491
H        11.06138842246955   17.79639182621735   12.53816917513118
C         9.11345975302801   16.11093331052556   12.04948062312938
H         8.30987154233577   16.83649577144828   11.93333707047947
H         8.70367283995604   15.11431954669374   11.91627145358177
H         9.84066366505053   16.28408196699377   11.26055453450091
C         8.67463073036167   16.29607209995029   14.49211079625270
C         7.39650074919293   15.69358373518451   14.38645235302071
H         6.99369858827968   15.19862851886818   13.51369172239825
C         6.65144554038040   16.02638118663503   15.53699155878969
H         5.59833657935229   15.81828687180739   15.68342621178947
C         7.45977187079998   16.82974424621699   16.36300094167922
H         7.13958864211689   17.34560735658014   17.26033262935449
C         8.70764912257497   16.99244349547360   15.72802228986129
H         9.48814526794117   17.66039657637727   16.06567011716225
C         7.72397557176715   11.30570249057167   15.05250835089712
C         7.16427100738824   11.15403553854735   13.77262452699922
C         7.28593662573489    9.94200830761183   13.11229309274357
H         6.85581387348467    9.83777692005143   12.12637845388674
C         7.93836180193681    8.87272384414807   13.69749048550466
H         8.03468442049564    7.93751627499337   13.16745035659308
C         8.44094381123349    9.00335450651828   14.97848322585586
H         8.91995277623636    8.16324898893173   15.46053928797270
C         8.33348000529330   10.19976042518043   15.66926041988792
C         6.40304222330905   12.27694666507643   13.12700201517019
H         6.09524329250374   13.01104877828815   13.87098172900623
H         5.51753462215319   11.89038910516882   12.62486843370174
H         7.01907658763358   12.77306126982372   12.37632322372367
C         8.82296677177474   10.28058821516291   17.08737052495852
H         8.62386057495527   11.26770117987797   17.50833202167959
H         9.89324097583328   10.08506841033182   17.13499671692384
H         8.32017259893521    9.52979876860733   17.69772405502436
C         6.94489769362049   13.13477828595838   16.53456508941565
C         5.33089897017035   11.21271966769484   16.88525240026024
H         5.87912052321902   10.70669798158829   16.09711360830233
H         4.27613383600977   11.26078211249728   16.59991263861007
H         5.41733679959573   10.62911162138573   17.80694197217793
C         5.14049833914559   13.34317095453282   18.07429746025554
H         4.16924231120677   12.87154789444385   18.24001235291581
H         4.96155794562335   14.34445373037581   17.66694027362066
C         5.89115746535953   13.46783448383174   19.41921398547884
H         5.20609130909242   13.22063168239023   20.23111182690154
H         6.69815383971663   12.73072158370365   19.43347222385244
C         6.49804696047393   14.86584740838807   19.67864422628119
H         6.12314617228811   15.56710849658805   18.92483970865004
H         6.18470618403387   15.22739902042685   20.66110725776583
C         8.59749278530741   14.85595459252485   20.93977067629153
H         9.67687310038616   14.87083498821426   20.82507197577034
H         8.31154108445637   13.95322602344512   21.48836822352299
H         8.29748447003326   15.72884112824938   21.52714920358915
C         8.50445445157543   14.84879103794628   18.40692756361253
C        10.90377353216641   14.87509713898743   18.98061566208793
C        11.50994504869434   16.10048608986186   19.29296596437616
C        12.66456661498591   16.10769019696432   20.05993502314757
H        13.12805439864903   17.05325180634441   20.30272688212953
C        13.22627424259013   14.92879527364533   20.51475106512844
H        14.12706298259580   14.95109031426936   21.10899211841512
C        12.62802674728674   13.71978509222129   20.20486797632163
H        13.06331152804037   12.79585831117155   20.55736418291709
C        11.47237418834315   13.67713021524170   19.44462742979856
C        10.91658730626955   17.38599529635456   18.79619412265033
H        11.17220076618026   18.20925046009200   19.45974416750461
H         9.83203728967415   17.31008037342141   18.72012161940389
H        11.31377900982071   17.61314931207276   17.80606663959284
C        10.80276205832507   12.37927269071178   19.10519672640675
H        10.57470684317131   12.35692264541992   18.03535038380283
H         9.86605976948553   12.27553654656378   19.65688006310300
H        11.44390210828246   11.53780685146581   19.35423770764609

