58
CSD_code = NIZQUK | q = 0 | S = 0 | Stoichiometry = C24H29FNOPPd | MND = 4
Pd        5.19734743479889    1.74741466028841    2.01891358325850
P         3.59213850309075    2.66841481693000    3.24418004158121
O         6.62181830839421    1.36091327095054    0.53649480251770
C         5.46815713737977   -0.06287830525597    2.79340205991510
C         6.39500164306926   -0.31692692934027    3.80540887780802
H         6.90767328018588    0.50768239086669    4.29565957150807
C         6.69677275608031   -1.61119641181013    4.20069749402202
H         7.41433901660621   -1.81002070337913    4.98231952251801
C         6.06413486050058   -2.66258156219094    3.56704541244945
C         5.15976198181881   -2.45820966769422    2.54303139536890
H         4.70106307691351   -3.30497831154915    2.05530453576363
C         4.87290374332082   -1.15715801541554    2.16166692744317
H         4.17699058760138   -0.99760721953395    1.33865480069089
F         6.34270003909626   -3.93286108317486    3.95787830456219
N         5.05637962454688    3.51818624835390    0.98884016386198
C         5.78522923540552    3.48311443442808   -0.13798157792525
C         6.61292462008845    2.31519589454161   -0.32757962393130
C         7.38748838407969    2.30540655783748   -1.49589462862628
H         8.02804058365722    1.45580762258921   -1.67755384649299
C         7.33462705555684    3.35227017781672   -2.40616053014248
H         7.95113748843641    3.29234257250069   -3.29258548836051
C         6.52643990233329    4.45664716645850   -2.22953405947931
H         6.49959527684607    5.24957078944698   -2.96128786653575
C         5.72815322261633    4.54422521023383   -1.08304718009408
C         4.84536666511592    5.60451877377396   -0.77737693914387
H         4.76067964321179    6.43045761364300   -1.46945818517879
C         4.10310390408788    5.58819619200910    0.37543529230915
H         3.42403354955930    6.39464924512781    0.61109607841052
C         4.23566589344734    4.50711750480784    1.26638565926694
C         3.50885477555308    4.42241143296581    2.58296950003066
H         2.47820880934092    4.77328844509941    2.48510091593462
H         4.01052839546060    5.08375463016129    3.29644773956315
C         1.89907518897188    1.97169124458948    2.79859136142538
C         1.96056994075982    1.91467601869871    1.26535995433572
H         1.09717789806407    1.38015288444959    0.87207852631497
H         2.87327492446327    1.38239216088995    0.94302909296064
H         1.96545063076547    2.91321428131194    0.82790749048303
C         0.68776242696832    2.77568364372243    3.26075039403812
H        -0.21951769074677    2.29108882752931    2.90237442869113
H         0.69211331219454    3.79185440402892    2.87403903437940
H         0.63688964562558    2.81868913194323    4.34545858407213
C         1.81138561394846    0.54311677958186    3.33647132519865
H         1.57370236602534    0.53353776025363    4.39635422534097
H         2.75766015099798    0.02234303750876    3.18365321580888
H         1.02676375075137   -0.00304802088424    2.81538287792830
C         3.95135748215515    2.93529354773982    5.07185719452490
C         5.40123448019707    3.44366896485407    5.05546272052264
H         5.85455690746069    3.32521369955417    6.03779187386109
H         5.45858292166423    4.49820021884035    4.79043369561769
H         5.99660398580696    2.86655394675346    4.32713464294360
C         3.03463804439687    3.92276239461821    5.78740440836291
H         2.03129450047373    3.51834531314843    5.89234978013492
H         2.96807363797560    4.87407379681473    5.26475213909675
H         3.42239388558079    4.11497022833135    6.78698628071936
C         3.91775359012615    1.57665098514063    5.77033053309703
H         4.39492311713724    1.64655328031160    6.74645647475173
H         4.44996089815662    0.83366770151437    5.17580682711060
H         2.89705899161383    1.23808632770872    5.92421016539878

