69
CSD_code = NIZRAR | q = 0 | S = 0 | Stoichiometry = C30H34FN2PPd | MND = 4
Pd       -0.24500004382959   10.25921570697307    3.89521319101451
P         1.11413569687100   11.98544565921484    3.46714166704774
C         2.86004413855557   11.66092991842974    4.09937163974949
C         3.78329268361343   12.87097173661589    4.19060620047978
H         3.35100916739804   13.67668597933947    4.77941429678587
H         4.02279376432760   13.25377034879945    3.20171309949286
H         4.71660556253002   12.57527976157907    4.66827894232202
C         2.60447359005754   11.06110254248498    5.48900658682419
H         1.86891903019926   10.24098505851119    5.41404998612800
H         2.22759207081384   11.80807717243636    6.18725581514879
H         3.52677403492542   10.65228876732823    5.89944686970067
C         3.49372449895321   10.58054683669633    3.22196726468477
H         4.35451847837569   10.14741206487956    3.72928243493008
H         3.83574998626360   10.98475058864093    2.27379763644972
H         2.77252591272827    9.78565282932938    3.02286955919738
C         0.97265739973124   12.85437469567860    1.80323500845181
C        -0.54327318003862   12.84338087264305    1.55134748996757
H        -0.75468133537774   12.98182870542196    0.49272043778330
H        -1.04762958713019   13.64033406449844    2.09560580498804
H        -0.97450959212390   11.87882462217913    1.86932894771875
C         1.65979985769734   11.98687292833739    0.74940096918266
H         1.40290919952994   10.93772917065630    0.89634153642123
H         2.74016892005440   12.09557824805559    0.79831167345918
H         1.34206606649886   12.28528756403745   -0.24849108088163
C         1.51867957959245   14.27822143752368    1.75291764854404
H         2.59741469375989   14.29096654120572    1.88323651276331
H         1.07390131596420   14.91474660914614    2.51404875973671
H         1.29438309479382   14.71368724146957    0.77984877284630
C         0.47025738872079   13.28544394547648    4.64992192521178
H         1.27112370945503   13.90801367171272    5.05747902034512
H        -0.20283023317243   13.94038238852949    4.08685467790505
C        -0.32378739693368   12.62735812708907    5.74637982396202
C        -1.37406051396291   12.59782454127317    7.89976594064487
H        -1.59922458449868   13.06054704919469    8.85008191968948
C        -0.58545909514768   13.24242242564106    6.98256003233918
H        -0.17209398191259   14.21822652730062    7.19273973685352
C        -1.90477280372173   11.31722129266680    7.62124188879117
C        -2.72358418315771   10.58326322244191    8.48527874982135
H        -2.99033129965214   10.99394808439427    9.44684843320266
C        -3.18924130271721    9.34483286342483    8.08511064737835
H        -3.84392090825847    8.79313262074602    8.74562622161175
C        -2.84811252733999    8.77486865910381    6.87046647710200
H        -3.24996470547161    7.80966602334929    6.60092582434702
C        -1.99610055562125    9.43661347283204    5.97001235995389
C        -1.56066296043415   10.75354439296950    6.36033009989319
N        -0.81805817221610   11.43494342886785    5.47780480600485
N        -1.61611469939813    8.99040249434302    4.76189436645259
C        -1.87812300681743    7.69304562056803    4.33338894764861
C        -2.45035893779851    7.50225484392419    3.07281608732041
H        -2.72828499882100    8.37513233443488    2.49464023690365
C        -2.64204671495481    6.23038198731588    2.57513041877357
H        -3.07989520814913    6.09758438586855    1.59623902986300
C        -2.27341554334974    5.12424296070185    3.32400874031381
H        -2.41765030098940    4.12906798505317    2.93047571577167
C        -1.71089703635987    5.30217277852981    4.57691159172535
H        -1.41450174452380    4.44301913164492    5.16235091408350
C        -1.51398985247349    6.57182420532811    5.08312186911396
H        -1.04919278882964    6.70868655293813    6.05036607801611
C         0.27269245828721    8.88857173610091    2.54091455452820
C        -0.18639472400031    8.83413008272321    1.22508783135640
H        -0.77303667528247    9.65162351986083    0.81577357515412
C         0.06852285191435    7.73949699714021    0.41338139087831
H        -0.29398874097717    7.69487795948909   -0.60250733383409
C         0.79299346882603    6.68427759602448    0.92959299362097
C         1.26842591758510    6.69380024316743    2.22637424337788
H         1.82186021484215    5.84669994009947    2.60182601245820
C         1.00384052614096    7.79765629688986    3.01913681132554
H         1.36128493825035    7.79330363266205    4.04950226610437
F         1.04424971818758    5.60774630605337    0.14147740304856

