62
CSD_code = NOBBIR | q = 0 | S = 0 | Stoichiometry = C24H32ClN3RuSi | MND = 9
C         1.33530276801896    8.84289667266563   -0.35707475508698
H         1.66318395058558    8.01943516722937    0.26346556004184
C         0.22619432892729    9.42120758333684   -2.26716907680815
C         0.51051992554843   10.76256769211475   -2.04612757933208
C         1.25433670138598   11.02023367770042   -0.85320565182723
C         0.30017202354116   12.03441086632412   -2.63747927487331
H        -0.22043354518623   12.22971890978926   -3.55286607299813
C         0.89124869521287   12.94097817908937   -1.80400578540403
H         0.95254537000181   14.00641491782794   -1.90321364372614
C         0.61764156434360   13.83765955789326    1.48787928289488
H         0.21416197515246   14.43611521056698    0.67523516318510
H         0.86552805883631   14.51544835556623    2.29721112567182
H        -0.17687537695218   13.18518886844986    1.83503014269129
C         3.30181175035485   14.32884611789348    0.30446111178091
H         4.03007830198094   14.03435728907156   -0.44312820094750
H         3.84448819671794   14.73918075390451    1.14876350861203
H         2.70176708092336   15.13088016092738   -0.11435885123761
C         1.16870047522743   10.65162838320252    2.90159893040598
H         0.25045480948680   10.73612699092879    2.31280801993798
C         1.78524730299417    9.38873167447592    2.88802962543888
H         1.26942802629563    8.60965645975055    2.32219206582558
C         2.52880300707911    8.82129585209202    4.07656998477279
H         3.00029677115499    7.88364236464021    3.77312386860861
H         1.80937420747108    8.57465556258787    4.86817042874661
C         3.60294540089410    9.77804335475226    4.61054090690345
H         3.20915394545303   10.36440260583863    5.44322982569634
H         4.43902465476834    9.19389220901853    5.00179376265440
C         4.12050238085962   10.72326488952890    3.54224692453671
H         5.19051487910478   10.61968588975658    3.38315212122134
C         3.57627739992105   11.99374814684619    3.35143268597903
H         4.25762316729527   12.79194526560435    3.05856247307157
C         2.41023316212858   12.48118628206119    4.18637417442851
H         2.12997696563882   13.47449141987805    3.84014321510493
H         2.74899360891248   12.58736158024809    5.22408324803044
C         1.18305173443672   11.55218644715547    4.12553354240724
H         1.13729580465618   10.92509789539513    5.01959881450600
H         0.28118773227256   12.16601103358150    4.12300820922678
C         4.51336978891462    8.81591849793421    1.27385750350802
H         3.99552309558709    7.85872318009134    1.19166066399395
C         4.35793150857112    9.69833604298008    0.20466691611505
H         3.82111280505921    9.33050691814023   -0.67512270400975
C         4.65875634518525   11.09029422750068    0.22322616723613
H         4.46241175653190   11.55955215098300   -0.74723966071990
C         5.92555462038158   11.66758684076506    0.82923687461900
H         6.00047415064562   11.46947809785023    1.89551728018060
H         5.91228134192218   12.75132680871976    0.69563613124556
C         7.18788330137164   11.10139167877868    0.16823378528691
H         8.05915773055061   11.53041199032575    0.66828881609902
H         7.22667956911896   11.39311165762819   -0.88382470722780
C         7.24814427549351    9.57020350734601    0.26083276600615
H         6.51971208957925    9.15662592973627   -0.44333918149803
H         8.24323860521241    9.24022045831594   -0.04692175100925
C         6.94912630343681    9.03709879120119    1.62606981049639
H         7.80098527345975    8.87043506692270    2.27203558459312
C         5.72972784286864    8.71671347002060    2.07059240621591
H         5.63809424834274    8.23125236677027    3.03516965477829
N         1.68056409496455   10.08029997016210   -0.00242815117235
N         1.47047424188893   12.33091423735094   -0.72860498350639
N         0.63847606715751    8.49383554559636   -1.42263689289446
Si        2.18115287623797   12.86175387871627    0.87688064891870
Cl       -0.65670802470827    8.88880904145270   -3.63420814444467
Ru        2.94211888678345   10.71360535701711    1.62661133704944

