59
CSD_code = NOBCIR | q = 0 | S = 0 | Stoichiometry = C24H29Cl2NORuS | MND = 5
Ru       -0.43032232504898    4.13857741935494    2.09036730833375
Cl       -2.22508354920514    2.84468259178913    2.67949920521040
Cl        1.64328957172813    5.12306676006747    2.28908004992698
S        -1.22214891231003    7.15191646792696    1.01777699534802
O         0.62303203517111    2.19853864395900    1.77221994069244
N        -1.83830486970117    6.42665530207792    3.32318494673506
C        -1.28410227106927    5.91236789349623    2.22168196714929
C        -2.21329885723129    7.75484994946419    3.28452155949091
C        -1.95384660405172    8.32526012045895    2.08680282299456
C        -2.80899564353626    8.42702815981398    4.47441680222717
H        -3.72526460633907    8.94546736955231    4.19747062425009
H        -2.11772746036943    9.16756238467097    4.87546893587774
H        -3.03246261328408    7.70102003427754    5.25184526706976
C        -2.19930692326525    9.73004353919114    1.66763192560343
H        -3.19907523447179   10.04741354778159    1.96109548462110
H        -2.10018119490965    9.81994486939979    0.59009411765208
H        -1.47986544048490   10.40091244354657    2.13766581578252
C        -2.10299542645249    5.58019026759167    4.44568179788365
C        -3.36932040436677    4.99711807280631    4.55037884254911
C        -3.61382695757480    4.15778437579204    5.62333238016911
H        -4.58147590892066    3.68674112673463    5.71196097042560
C        -2.63463470318473    3.88693710546788    6.57105448297294
C        -1.40068957368071    4.50782694461529    6.45762377226843
H        -0.63875353304449    4.32083617809195    7.20113021932042
C        -1.11516656193745    5.37182309507399    5.40777375051213
C        -4.41434439721147    5.26462320919595    3.51266451245100
H        -4.07528210512035    4.88234188744623    2.54961045867034
H        -4.60408417244275    6.33251792247345    3.40762706633767
H        -5.34299138926555    4.76514198394686    3.77231844510060
C        -2.91976203463337    2.93478753302330    7.69145565499425
H        -3.87441213926194    3.16780937303827    8.15954516262422
H        -2.13831380326457    2.97137485454835    8.44624578956095
H        -2.97899845545587    1.91790571873947    7.30437013709977
C         0.19199400996467    6.10079563283111    5.33869504426528
H         0.72458570049251    5.87860373792719    4.41104080348372
H         0.82881338403293    5.82385829898039    6.17472873163409
H         0.02681393192046    7.17816562615308    5.36936668542664
C        -0.55748537593409    3.98975900572948    0.20978879990057
H        -1.02568194554948    4.71004126098733   -0.46937382210452
C        -0.00702888822376    2.82733704709798   -0.37887103282297
C        -0.05783150236888    2.56860046879450   -1.75908890936976
H        -0.53610490152155    3.29311051747134   -2.40151009871566
C         0.48668540478571    1.41799070078489   -2.28414953527991
H         0.44052751173915    1.23317182303123   -3.34653201089753
C         1.09346530285502    0.49177389767363   -1.44725803816991
H         1.51524558154966   -0.41292074633871   -1.85838038367748
C         1.16917326905962    0.71204826134761   -0.08047136869789
H         1.64378684165077   -0.02786610022485    0.54519426749103
C         0.63013495244664    1.86831327137713    0.46095752088257
C         1.34003163922613    1.45351350589146    2.75374472932520
H         1.11210110607649    0.38452646405465    2.62952356520202
C         0.80801132914160    1.93877923867095    4.09898089580164
H         0.94066320142241    3.02551738328915    4.17032640938809
H         1.35173624931984    1.47294445855949    4.91616235108419
H        -0.25187225353217    1.70105197380757    4.19676926754352
C         2.83972019469947    1.71313742706287    2.62192388584889
H         3.20899967157427    1.39408873114108    1.64985441303613
H         3.38051469008281    1.17673823118958    3.39688367969693
H         3.03101735929222    2.78005273728698    2.72699693781475

