101
CSD_code = NOBFAM | q = 0 | S = 0 | Stoichiometry = C50H38N4O6P2Ru | MND = 6
C         8.49907297747146    2.39883375703892    6.63617303880886
C         7.98517946545401    3.22799422513875    7.62779854997396
H         7.03192826745812    3.71481396993968    7.46842134146484
C         8.69982037215030    3.43814001290450    8.79358702147053
H         8.29780441592953    4.08036724307654    9.56330246235584
C         9.92759560623133    2.82324036798647    8.97538849520520
H        10.48244836018551    2.98291376914143    9.88801796217981
C        10.44605521316059    2.00302841552247    7.98581074387398
H        11.40498490426288    1.52628045927723    8.12617805257024
C         9.73794071414725    1.78978571200515    6.81762454254655
H        10.14083672490446    1.14717915860479    6.04710373199329
C         8.05665267719253    0.44776139858056    4.66781819352651
C         7.46387110320890   -0.54328485858326    5.44869340909533
H         6.80042427938970   -0.24551487223895    6.25048257182774
C         7.72966026554581   -1.87667498329390    5.20878442697920
H         7.25821900580107   -2.63777228522484    5.81202540202848
C         8.59709007571630   -2.23193533979898    4.18689357411963
H         8.79878091736569   -3.27334484576850    3.98650740200820
C         9.21361103951480   -1.25036926107625    3.42969682518217
H         9.90587078939815   -1.52654653771548    2.64777008799105
C         8.95021056789923    0.08887042590872    3.66673747244506
H         9.45174727752286    0.84588432563848    3.08067672342790
C         8.40900266330563    3.24408860743317    3.92965718128250
C         8.26308440790885    3.03458782493920    2.55853109934238
H         7.74337968760604    2.15326434054477    2.20195516400649
C         8.77757827370176    3.94634761043408    1.65596002614985
H         8.66765602592664    3.77248596632832    0.59519705093885
C         9.41799591662934    5.08746241317623    2.11159447138516
H         9.80715585152567    5.80571840370642    1.40577846261083
C         9.55116423204475    5.30962631787730    3.47185520360418
H        10.03984949664370    6.20396835101457    3.82830261739890
C         9.04924842875690    4.39478225642507    4.37954644650860
H         9.14537412609256    4.57486370309666    5.44107624977797
C         2.54132127716607    4.02998442006649    6.93137054385236
C         1.18671245880721    4.16831828335754    7.22326358817773
H         0.44533963526780    3.84878334623299    6.50393636309514
C         0.79449732797146    4.70776461873936    8.43408275229033
H        -0.25657928693395    4.81113083329901    8.66015064544187
C         1.74583800538189    5.11296164075887    9.35719503405252
H         1.43448948941816    5.52993158643424   10.30348298984233
C         3.09373698992218    4.98432927603128    9.06596971848981
H         3.83467776663028    5.30345433410448    9.78407025311393
C         3.49334986261948    4.44408618147258    7.85644998977425
H         4.54339986331374    4.35263749207568    7.61178887018676
C         1.75513364221634    2.11188639880791    5.04389629093151
C         1.86718299480706    0.95053907250075    5.80646611768485
H         2.68067123288660    0.87149207505148    6.51608982239558
C         0.95041896537144   -0.07210483616020    5.66466738078548
H         1.05145116404284   -0.97246941725309    6.25165056987438
C        -0.09311272795876    0.06019218501030    4.76122552206356
H        -0.80562526893376   -0.74121597453462    4.63699483961911
C        -0.22797296897197    1.22525731771140    4.02544960124791
H        -1.05313456998688    1.33700262930909    3.33730608506281
C         0.68943490693181    2.25387747061980    4.16422109261216
H         0.56316815036877    3.16477343902082    3.59630387184905
C         2.75463169087166    4.70837642411744    4.18681789203756
C         2.61927161627207    4.44825106178042    2.82333388202777
H         2.58659216608732    3.42359267787587    2.47269972043582
C         2.52964015550348    5.49125161338673    1.92075746868652
H         2.41685389021401    5.28115331252519    0.86686811901676
C         2.60018591554152    6.80156764028948    2.36609258169076
H         2.54323213595515    7.61520003967714    1.65874165299338
C         2.75233824788686    7.06620040624662    3.71677230823656
H         2.82008359405031    8.08642985688376    4.06355069667069
C         2.83086482492888    6.02669014382771    4.62573218191363
H         2.96061723290703    6.23455090168665    5.67866055802491
C         4.75553452299401    0.84004604564764    4.29044472447240
C         4.44630818701891   -0.41086258313285    4.76877676635186
H         4.45010350918986   -0.62449321085183    5.82779289183864
C         4.11010278991139   -1.47318319699234    3.91020353513575
C         4.07439978170898   -1.30560168555127    2.54317217569256
H         3.81429161596783   -2.12395894859824    1.88907794422939
C         4.38060177781233   -0.05609668508862    2.00548699926333
C         4.72088733036326    1.01147499320730    2.87337443637727
C         5.62330240275401    4.38937003626365    2.80144472924213
H         5.58978972997976    4.49860105744871    1.71398144165088
C         5.97662369004663    5.55005824585439    3.53305662856959
C         6.25122764550487    6.71641435128268    2.79360009857814
H         6.17465680913379    6.66251973121613    1.71584217307098
C         6.60596015960706    7.89171021388233    3.39540113209303
H         6.81176168499033    8.77149242298876    2.80549999011847
C         6.70055586326876    7.94280606609007    4.79081126480162
H         6.98131971793655    8.86842147191906    5.27316317970368
C         6.44119297529903    6.83464224865980    5.54571587963882
H         6.51185943326670    6.86677504675593    6.62361916113446
C         6.06879142705017    5.59201857325660    4.96402153843362
C         5.18351879646960    1.89207577193688    6.91157998979804
N         3.79892349325018   -2.75045174618191    4.47031146235122
N         4.33355173017877    0.08761780561507    0.59917790689768
N         5.02874480052891    2.24211580797676    2.41411704417970
H         5.01661062024114    2.42045577096189    1.40441791752986
N         5.33945585810768    3.22264299457851    3.29140273129413
O         3.84586861168430   -2.86749696914234    5.68116723843620
O         3.50459501739950   -3.65242989443111    3.70993335186317
O         4.02730707061130   -0.87324038211556   -0.07759498673711
O         4.60459037048584    1.18752144188179    0.10863827933642
O         5.84488746461707    4.61080691087765    5.75170249151129
O         5.12044814678142    1.41349522770189    7.95616370089844
P         7.55679650207067    2.14430593925732    5.09915494492817
P         3.07229338004516    3.33517830273083    5.33437404491639
Ru        5.27523257071180    2.59162632335612    5.21556218374469

