48
CSD_code = NOBGOB | q = 0 | S = 0 | Stoichiometry = C22H21ClNNiOP | MND = 4
Ni        0.00102052817566    7.83949358468003    3.03019576323533
Cl        0.81784979122652    9.46798959272986    4.03546727353495
P         1.00232124964105    6.73066212069379    4.50258950306386
O        -0.74876364847008    8.91791688839604    1.72852886587339
N        -0.55280528877303    6.18806035420611    2.17206914707596
C        -1.13419469010818    4.87632766939164    0.19821704805152
H        -0.13508611986529    4.44479712415314    0.22629230363286
H        -1.37444035297677    5.09488887839988   -0.83683499440837
H        -1.84033932249214    4.13392890149871    0.57246957054313
C        -1.18326484973625    6.13272176278886    1.03175250511623
C        -1.94444424331884    7.23631428440045    0.50808079031627
C        -2.98902468457669    7.00876196205822   -0.40890521635577
H        -3.24922856562422    5.99573299043187   -0.67764215515968
C        -3.73833007808365    8.03231072550096   -0.92476675642461
H        -4.54858938907642    7.82095131475914   -1.60604206160332
C        -3.45583924838269    9.35217667617198   -0.55858762575715
H        -4.03763117917106   10.16106618394420   -0.97669930354646
C        -2.45952583666170    9.61813632412616    0.33566189195589
H        -2.23197742987592   10.62684681884922    0.64523627529445
C        -1.68006434382386    8.58231712271133    0.91693649261421
C         1.12564530004519    6.92439537531490    6.29666401424186
C         0.41307224689957    6.14003257701542    7.19634529347680
H        -0.25134785314371    5.36479083624426    6.84421213800479
C         0.55189946520387    6.35327127049309    8.55705848964892
H        -0.00137961084062    5.74021702810629    9.25354241781428
C         1.39096188081047    7.35050905287655    9.02484299607407
H         1.49218691347521    7.51486728261238   10.08740811816820
C         2.09419864145696    8.14130994915257    8.12915940307656
H         2.74248191973349    8.92421523073254    8.49282547359248
C         1.96371446819446    7.93309680659309    6.76980227756464
H         2.48732823878160    8.55603488324301    6.05888395281099
C         2.73250948420655    6.48264308772332    4.00168816571540
C         3.15103749880272    7.03258960718151    2.79531695283387
H         2.44987350640280    7.63802306935157    2.22151138454192
C         4.44406332444667    6.82572204522704    2.35044603684428
H         4.77065985984920    7.25595883771813    1.41550044192708
C         5.32098615202829    6.06999236958966    3.11207574378516
H         6.33252708862565    5.91062072060519    2.76892819939424
C         4.90715643679758    5.52292262748864    4.31685129132404
H         5.59580306339840    4.93832598796337    4.90918497810968
C         3.61458587306382    5.72584407562215    4.76480677406347
H         3.28819936977082    5.30766607496710    5.70726540336492
C         0.27502643214362    5.05484801121598    4.19723216904748
H         0.89841283682017    4.23552880149729    4.56162688009865
H        -0.70161617237230    5.01908957306004    4.68742224120858
C         0.07753643864079    4.97252617383158    2.68369564680957
H         1.05678686051164    4.83489014098541    2.20187139510489
H        -0.54415196176759    4.09876722369872    2.45841240429928

