39
CSD_code = NOBGIV | q = 0 | S = 0 | Stoichiometry = C16H18ClNOPdS | MND = 4
Pd       10.06476248250037   10.57869746715153   13.28874059969900
Cl        8.21599609575917   10.89445300323811   12.06179624345889
S         8.87706149636187    9.69178186024859   15.05843381115096
O        11.14899683039762   11.38550617010342   11.79490012237381
N        11.82610196017579   10.35394235497474   14.50414679041020
H        12.03595091126552   11.31331365587254   14.80105952764082
C        12.40866871114155   11.70101782433219   11.91454682832696
C        12.89046267934924   12.75187456302940   11.10371664937960
H        12.17429859813147   13.23497884255942   10.45685732632702
C        14.20848657729860   13.13924166317658   11.12105083739550
H        14.53517610077484   13.94766978629406   10.48290073351627
C        15.11592176736993   12.50715621455004   11.95903935148137
H        16.15025341036678   12.81358024224036   11.98459172304491
C        14.67389914906700   11.47485839798444   12.76255994499728
H        15.37555597427106   10.96985315473772   13.41483305237211
C        13.35200227867572   11.05440633758984   12.75294809509535
C        12.94108134390403    9.90423439007482   13.64676541146112
H        13.79754222888318    9.62905741828756   14.28484506145966
C        12.52793897479849    8.68468399519267   12.81386467624352
H        12.28357463475217    7.82481547189893   13.43758000280240
H        13.35446504841573    8.41043409596775   12.16297024507430
H        11.66476892982548    8.93991459409680   12.18224839032989
C        11.58110181186012    9.53120676452121   15.68644008305632
H        12.37051291343425    9.67198215801909   16.44155985423125
H        11.58164767602065    8.47804924555907   15.38767359272292
C        10.22922857501078    9.87027897523152   16.29771605553635
H        10.18250457934776   10.91767266340213   16.60365292910105
H        10.01172496516243    9.23920724625141   17.15820999226695
C         9.06385895662472    7.96262547345568   14.62851103438111
C         9.05873472262161    6.98946818101241   15.61749190386366
H         8.94434963103040    7.26480162250118   16.65511807218201
C         9.19374335235305    5.65746809842109   15.26610694438586
H         9.19690630063279    4.90119895865371   16.03646779389845
C         9.31055088248552    5.29683381900513   13.93374216771297
H         9.41272745566318    4.25662139251093   13.66491368803931
C         9.28214697415405    6.27013468930953   12.94766017044333
H         9.35650796433305    5.99103645130664   11.90808829154095
C         9.15939398854018    7.60728572003687   13.28726439206669
H         9.10839306723614    8.37665703720261   12.51098761052939

