60
CSD_code = NOBHIX | q = 0 | S = 0 | Stoichiometry = C24H16N6O13Zn | MND = 5
Zn        4.81966279138808    3.50870566991333    4.13134733960339
N         5.65087658085046    3.76569007231342    2.26227346890162
C         6.89121673756942    3.43185406755676    1.95552435600629
H         7.54425224530111    3.23566175027136    2.79206015224755
C         7.33707531974523    3.33074175403240    0.64621481522191
H         8.35799074693997    3.05526858755817    0.43751281622190
C         6.43567966324927    3.57820433725239   -0.37547699603089
H         6.73551003557599    3.49610085788695   -1.40933164543011
C         5.13521865715492    3.92843614207152   -0.05164354896128
H         4.41621857145584    4.10637940796562   -0.83427186980583
C         4.77243912859465    4.02021921602043    1.29057108995636
C         3.41496867242138    4.37610526240967    1.73452722041690
C         2.43785546534647    4.88919348270914    0.88283766942408
H         2.65060661337388    5.07714294163046   -0.15654579616588
C         1.18294715571457    5.17530013695980    1.39377688978269
H         0.41223475974193    5.57464372643356    0.75186825963906
C         0.93473960993156    4.94263884504109    2.73682780405429
H        -0.03050519056633    5.14609066264604    3.17128417710490
C         1.96787659403652    4.44761576680252    3.51793324568961
H         1.83631294100080    4.25033482735598    4.57223832476927
N         3.16386200967433    4.17962232168643    3.02860745785044
O         4.24343551907184    1.54260302915812    3.80712226261110
C         3.70773731916003    1.60345260105294    4.92897643217723
O         3.64266992068042    2.66490197776386    5.58585064586416
C         3.08743970692530    0.36317381090049    5.51013323704390
C         3.10018309271178   -0.82418303452423    4.78888263697866
H         3.56252769720082   -0.85490324006251    3.81301932686362
C         2.51711950207093   -1.96001999907479    5.33445409845270
C         1.92381726953973   -1.93888875677778    6.58833520955622
H         1.47308796941195   -2.82866678385594    7.00530839297087
C         1.92046087497091   -0.74285114038963    7.29073580293227
C         2.49565873898012    0.40672949961842    6.76608448929835
H         2.48809710068173    1.33026513333126    7.32646361258580
N         2.51487857990407   -3.19878482592199    4.57367898576601
O         2.97310124594720   -3.16286125072663    3.45614407516781
O         2.04750059023196   -4.17617012329569    5.10874513389856
N         1.28997842370634   -0.69226243973751    8.59930476799563
O         0.85570634142979   -1.72726096297827    9.04587607913610
O         1.23838774929939    0.38419273154546    9.14653357366078
O         6.52694353928417    3.00206173721599    4.96360025013955
C         7.20255021416731    3.56984585185304    5.86309869143305
O         7.00872552270124    4.69480607375813    6.33054624909059
C         8.38834902598413    2.77424205486787    6.37998688332157
C         8.78204905011681    1.61217605008359    5.72988079268015
H         8.22874025919815    1.26053997731196    4.87098668379706
C         9.88281563711498    0.90615525329730    6.19659723057255
C        10.59235919896171    1.32682460232127    7.31179736269153
H        11.44530101185987    0.76859098149257    7.67122486227194
C        10.17999240853738    2.48761678961054    7.94975803173020
C         9.09101573347856    3.21825711841333    7.49271019191147
H         8.78919160008019    4.12769823908139    7.99232186109182
N        10.30727210900014   -0.29186736674115    5.49692176378321
O         9.79062574144698   -0.51929376855014    4.42685405808043
O        11.15174634544684   -0.97606153199197    6.02571190503524
N        10.91407818979196    2.95037367272738    9.11474446432177
O        11.89852398192006    2.32467453534394    9.43335128100583
O        10.49273025433981    3.92932239622197    9.68390740620609
O         4.85953988727509    5.39326500943312    5.07515066553311
H         4.18933194225838    5.43245726724777    5.76424879558935
H         5.72249159660322    5.29979899446903    5.58671657626329

