117
CSD_code = NOBJOE | q = 0 | S = 0 | Stoichiometry = C54H48N8P2PdS4 | MND = 4
Pd        7.30954863303770    9.13116320381245   10.65383931851956
S         7.68607011856617    7.33335693070247   12.13617293276827
S         7.19349195338553    1.58296250303434   13.49332574584577
N         7.67046770917120    4.89223507012469   10.81112110119317
N         7.60216250675159    3.96449745280871   11.77182815416072
N         7.59610338618719    6.69064096262806    9.55956318816432
N         7.58387281117193    5.61353754515697    8.74090494064673
C         7.65914354408363    6.27196650278777   10.80605397929368
C         7.61849075240224    4.54778433917775    9.47165858401658
C         7.60972525888245    3.13482437272346    9.02608708715075
H         8.56662214306843    2.67769548908125    9.29535403203776
H         6.83394677138654    2.60866728456764    9.58903581760222
C         7.37156037632051    3.02432841288587    7.52698193765831
H         6.41917662229376    3.47564223606348    7.26496520812570
H         7.36802438709935    1.98128174786137    7.22067470539821
H         8.15154482739531    3.55162911192935    6.98589924314825
C         7.68669054819486    4.25425614929295   13.01355243054744
H         7.85196628204741    5.26122396097914   13.39525894658651
C         7.54474793814080    3.21441373620533   13.97774298071374
C         7.63675256949051    3.31707514750707   15.34414985044522
H         7.84591440587376    4.24457938411103   15.84636345819275
C         7.43143174545677    2.09148198595368   15.99951188158523
H         7.46584960847018    1.97025157564496   17.06736896959152
C         7.18268635201191    1.07175538006019   15.13169479744844
H         6.99205328208325    0.04216823596479   15.36163742246456
P         9.40201403395324    9.95927925642678   11.01628363466486
C         9.97136398100726    9.52269285719999   12.68520329426224
C         9.10869843733683    9.88325480077541   13.72180814519703
H         8.18798177501968   10.40873298737823   13.48674266610779
C         9.42129072416030    9.55134474997730   15.02554766070882
H         8.75515473173806    9.83382052365742   15.82772241081080
C        10.58037273158626    8.84205781806942   15.30192295281954
H        10.82175627937657    8.57532462000628   16.32087668266087
C        11.41905677792962    8.45607707946814   14.27071928124977
H        12.31041250164560    7.88318970737284   14.48373931665573
C        11.11779566295145    8.79025898103368   12.96087213172922
H        11.76414849291453    8.46329414420191   12.15883100935180
C         9.84232836233499   11.72005580628945   10.84445361200747
C         9.91712994782175   12.23986897115340    9.55244850522349
H         9.75822621602515   11.58580192665334    8.70460799628796
C        10.17006207073316   13.58363500982706    9.35636539226849
H        10.21023948625788   13.98247898057405    8.35287949952804
C        10.36294071898314   14.41864979097880   10.44553049236446
H        10.55222784677342   15.47071000221649   10.29097894575617
C        10.31038984367677   13.90171232628532   11.72897040356964
H        10.46858064936043   14.54963017478340   12.57889941084137
C        10.04420167200661   12.55878981153271   11.93380451365914
H         9.98156639612183   12.16478099465298   12.93793196653536
C        10.57854682821635    9.25114536959477    9.82763934821534
C        11.93893292349835    9.54959015524502    9.86458934933549
H        12.32468264030626   10.21416986432333   10.62675586849012
C        12.78361867991200    9.00557875674513    8.91563013578236
H        13.84064702456837    9.22856498949753    8.94612266311110
C        12.27758843296047    8.17963739971649    7.92221514408902
H        12.94573233197239    7.75554247525669    7.18659507660281
C        10.92027105003370    7.91214656157519    7.86246830608108
H        10.52202501486454    7.28398183376858    7.07950236985602
C        10.06769289937810    8.45352643591300    8.80945073477152
H         8.99212484863445    8.26256729217122    8.76528746898827
S         6.93373037725674   10.92900317674338    9.17134179777993
S         7.42751070325953   16.67967862880839    7.81589175089563
N         6.94937740020128   13.36979918486030   10.49709491779790
N         7.01785800586804   14.29781512099408    9.53667294204623
N         7.02379290852598   11.57102640943364   11.74809189802650
N         7.03593462926168   12.64786082784500   12.56708422895434
C         6.96062043788376   11.99006277449605   10.50172956874920
C         7.00141974615936   13.71384187543119   11.83666378859923
C         7.01030364446159   15.12664043695432   12.28273596643293
H         6.05298080424797   15.58364918619744   12.01479329136563
H         7.78527678857214   15.65324245482488   11.71912711898808
C         7.25015202367285   15.23660363389212   13.78157590388314
H         8.20283544018144   14.78535983695666   14.04241212898940
H         7.25385352571140   16.27949223234369   14.08828098461984
H         6.47091562721233   14.70896971616904   14.32332215451851
C         6.93339904832110   14.00841982882545    8.29485135344678
H         6.76811984393543   13.00155670432728    7.91286352304485
C         7.07563619487798   15.04851816750947    7.33097719836849
C         6.98391203275234   14.94624467079504    5.96451703567741
H         6.77480716926179   14.01888636266218    5.46200335886773
C         7.18962344766605   16.17198134575278    5.30954189627732
H         7.15559339749240   16.29347761758465    4.24169923747914
C         7.43821916591235   17.19144820609937    6.17771076685071
H         7.62921042982487   18.22104053648216    5.94808519193806
P         5.21756421552010    8.30246906945384   10.29125582924391
C         4.64794421571665    8.73949526279381    8.62255367014768
C         5.51069559369636    8.37952915129578    7.58581562245524
H         6.43157001207621    7.85422144173755    7.82073471949924
C         5.19800080052881    8.71184142647108    6.28220692997047
H         5.86418991126396    8.42984868657334    5.47990612105216
C         4.03873551483324    9.42095516585346    6.00612246008028
H         3.79726293391591    9.68800418589227    4.98727138896039
C         3.19994458930177    9.80631308628922    7.03747206837460
H         2.30842390336140   10.37903011376878    6.82467063111151
C         3.50130310397450    9.47170648378656    8.34719035518129
H         2.85488834096578    9.79820656304401    9.14937332739230
C         4.77734644319527    6.54164026426434   10.46263224898262
C         4.70244273117692    6.02148879541815   11.75449058139773
H         4.86130063877925    6.67532345696681   12.60251906515040
C         4.44949039179292    4.67767042773676   11.95018859803384
H         4.40922292275370    4.27855708986708   12.95356245080473
C         4.25669600191890    3.84295714299352   10.86077750291243
H         4.06734491239863    2.79086699413820   11.01503459242224
C         4.30941384526332    4.36022925357620    9.57747570872666
H         4.15133326939785    3.71254329597805    8.72735041521594
C         4.57563044920167    5.70319829483344    9.37303250186172
H         4.63837288652683    6.09747810694718    8.36901760270821
C         4.04124144062509    9.01030646793195   11.48028813606931
C         2.68089562010639    8.71163230527646   11.44371432380591
H         2.29503863115536    8.04701312564831   10.68163849200442
C         1.83638890203393    9.25547339207504   12.39293251008477
H         0.77939561868817    9.03227211928881   12.36276625358066
C         2.34254141353980   10.08151434731618   13.38620137015486
H         1.67452728073720   10.50548298377048   14.12201261495023
C         3.69982526865273   10.34924803995910   13.44556460976362
H         4.09818757983364   10.97748759769147   14.22841068145724
C         4.55223333277409    9.80798744447758   12.49835665157045
H         5.62777794475027    9.99907830547516   12.54224885843118

