47
CSD_code = NOBKAS | q = 1 | S = 0 | Stoichiometry = C23H13N7O3Re(1+) | MND = 6
C         5.84368379581479    5.72565968000969   -0.93542083829369
C         3.92823820347740    7.72761163863634   -0.37224110772283
C         5.77953181077698    6.87980038349790    1.58124778841959
C         6.02253482200584    2.43317489875588    1.72965161102564
C         7.09637119747126    1.47446070020606    1.80242274206520
C         8.29563607539886    1.77862556428782    1.14921476045090
H         8.37820908440110    2.71523215089778    0.62084543852598
C         9.34860917111961    0.89063233717056    1.18904952347249
H        10.27732520418280    1.11797337854433    0.68915052585911
C         9.21191265235909   -0.31346341710668    1.88322110749910
C         8.01699614710967   -0.62037966929430    2.53773927300337
H         7.92445851839021   -1.55429927881206    3.07070434227263
C         6.96453528563859    0.26941604051505    2.49806640223922
H         6.04546817910309    0.01855876744428    3.00649202601077
C        10.28899772053095   -1.23418448488298    1.92514042454083
C         2.80565320880190    6.64512910247286    3.02071130690743
H         3.70495943248745    7.16101161550492    3.33129282424716
C         1.69614452359555    6.60295225018972    3.86761851535518
H         1.74858027866922    7.08326501813187    4.83102860526852
C         0.55599747658226    5.95577979415858    3.45546083501683
H        -0.32083226165273    5.90811992007496    4.08288866518626
C         0.53880661811040    5.35266711292846    2.18674426444340
C        -0.59652345455717    4.66756991589505    1.66477902936092
H        -1.48075431905577    4.60914384083874    2.28053594092274
C        -0.57228691707568    4.11035185792009    0.43007035050685
H        -1.43611846050335    3.59687052552668    0.03691835094376
C         0.59024492312295    4.18892680437878   -0.39009137610476
C         1.73424259169793    4.85492301889848    0.09858483934287
C         1.70844718621765    5.44546117757928    1.40384014902524
C         0.66001752088993    3.63729261089881   -1.68031131530919
H        -0.19595001728104    3.12270624845110   -2.08945833053491
C         1.82390865746777    3.77117046452072   -2.39920633204270
H         1.91637190682453    3.36580175630571   -3.39356029685871
C         2.90612384027514    4.44800305721313   -1.83293984545316
H         3.82604445308815    4.56623440029251   -2.39025732843528
N         6.04530733867455    3.57160318600629    1.06258509235755
N         4.87518569255889    4.14846013862465    1.25692219479841
N         4.10859524553645    3.44292355452773    1.99996898555304
N         4.79868274810680    2.35219785588797    2.32013425305599
H         4.40563931254665    1.64248934435559    2.91799037263013
N         2.82164776596780    6.08482531048311    1.82514977242455
N         2.87157970823358    4.97469805196177   -0.62174302304053
N        11.15452998757399   -1.98194485857795    1.96267654763245
O         6.63207423711056    5.51065310359922   -1.72783131818317
O         3.57057888593289    8.70386954746123   -0.83375255013577
O         6.53057459257957    7.35336769961006    2.29567709823473
Re        4.45771942970293    6.01655788398760    0.42058970349404

