48
CSD_code = NOBKEW | q = 1 | S = 0 | Stoichiometry = C23H14N6O4Re(1+) | MND = 6
C        13.75841752863675   -0.94394890635769    1.56474277172144
C        11.90002850228257   -1.77689689012985   -0.38936630148720
C        13.83420378245966    0.20519631257076   -0.95310649350499
C        14.02244960940476    3.50927888178988    1.71171253425362
C        15.09462104312011    4.46979848072454    1.79132837635519
C        16.29330259985171    4.17719098715957    1.13233915902016
H        16.37668472680917    3.24647740439128    0.59357680135961
C        17.34155969121906    5.07223333762815    1.18131767326603
H        18.26768766573802    4.84875187314663    0.67377724253075
C        17.20744728368444    6.26776453777960    1.88549583814425
C        16.01088140837216    6.55552581971253    2.54396299823907
H        15.93229948133172    7.48717166126734    3.08386724447548
C        14.95881503741990    5.66659967117831    2.50117932886817
H        14.04031272782453    5.90654252582245    3.01632884151696
C        18.31695132638005    7.24638641942212    1.94690072520702
H        19.22601855220564    6.92723155114517    1.40527029663744
C        10.90996599947274    1.51072265815637   -1.85424190783996
H        11.83117356740821    1.38790238614844   -2.40861402404080
C         9.83390755428343    2.19497242057724   -2.42303036230728
H         9.93217886337123    2.60110327335305   -3.41651154647087
C         8.66810752235244    2.33410516585562   -1.70816647564073
H         7.81630873326094    2.85344827640921   -2.11973844226342
C         8.59103418990076    1.78192540713947   -0.41864179722367
C         7.42635431659768    1.86646855825162    0.39775319318783
H         6.56584201317450    2.38283778574151    0.00112948795788
C         7.39585658697799    1.31096615560802    1.63311486252640
H         6.50993576319225    1.37374599007085    2.24604380198722
C         8.52665040778331    0.62212438227834    2.15958872576682
C         8.53815392235179    0.02310749482278    3.43032449585167
H         7.66035300039577    0.07727010530941    4.05580243711214
C         9.67443169400977   -0.62752097582550    3.84736682196368
H         9.72299053729126   -1.10358486126557    4.81313487228942
C        10.78538701555156   -0.67829271658279    3.00274871406688
H        11.68150924405863   -1.19712399281275    3.31687597141863
C         9.69755927031310    0.52130018155837    1.37956373311392
C         9.72981838757775    1.10974348498235    0.07344030949301
N        14.04773649850265    2.36777729605891    1.04989785329314
N        12.87397402979370    1.79581398279828    1.23595263783030
N        12.10330164713327    2.50646195292744    1.97009115571726
N        12.79362416484024    3.59600920797686    2.29108565075725
H        12.39815223039486    4.31110865155367    2.88093387310091
N        10.86831303661482    0.98297849391093   -0.64377909255689
N        10.80639366963812   -0.12267138464256    1.80512740084702
O        14.50408615034453   -1.42526272914045    2.27989393408491
O        11.53264899853272   -2.75097768028864   -0.84798416647502
O        14.62446725341707    0.40974732278814   -1.74641354726910
O        18.25646648582853    8.29681180740896    2.52317882138552
Re       12.44483627890124   -0.07012176837511    0.40224557172897

