56
CSD_code = NOBMIC | q = 0 | S = 0 | Stoichiometry = C26H23Cl3N2ORu | MND = 9
Ru       -0.23510836739970   10.94702393456267    3.35025547559004
Cl       -0.50122480982875   13.19242587968898    4.01751198008784
N        -0.50860081314978   11.77575033231699    1.52981744591171
C         1.05385606044151   10.54475225983556    5.26115914904139
Cl       -2.54436181732714   11.57355034553618    5.80478715095605
O        -3.90399660841122   10.81241161664640    1.46220408702813
N        -2.23399518431312   10.63073847581744    3.03099508681971
C         0.08958882441229    9.53210200073160    5.15561903057107
H        -0.54529961903532    9.29661761132639    6.00198684417969
Cl       -3.01546974394429    8.01684230368224    1.81936602571489
C        -0.01022142724977    8.75425696166525    3.97332799801822
H        -0.71940630934696    7.93318388733370    3.94516556910245
C         0.85922613805429    8.94701427536490    2.88777224423618
C         1.83219069988922    9.97800080983216    3.00313330721776
H         2.56162795828701   10.11029994826238    2.21132667589798
C         1.94866665089232   10.74176240795015    4.17160856654889
H         2.76288136945311   11.45001677294646    4.28326078708961
C         1.18225388154260   11.38273455017954    6.49434972074673
H         0.60599671092743   10.96310526251609    7.31508720719600
H         0.79815357277771   12.38409283016143    6.28341620963973
H         2.22551783953026   11.47615736250653    6.79185647262027
C         0.82701379577900    8.02013097482147    1.69544574071187
H         0.00292779086242    7.31273147681719    1.84045464124333
C         2.13567128617026    7.22798757628193    1.61291256769184
H         2.97825799018659    7.88502575824792    1.40908828830428
H         2.07380090102859    6.49461116151734    0.81298852954413
H         2.32425696599702    6.70331519327168    2.54739021302185
C         0.56240387601233    8.78139960018070    0.39536712158726
H        -0.40592559411194    9.27702078412918    0.44496080976061
H         0.54603730152088    8.08907233200813   -0.44289024697921
H         1.33095351557253    9.52919058511660    0.20784832621858
C         0.43811308047209   12.45541673403396    0.82363535611936
C         0.20440022611972   12.84581177884624   -0.52566122700342
C        -1.07012486759052   12.61584024231825   -1.08670434506454
H        -1.26187502745539   12.90274658987635   -2.10944873972978
C        -2.04247038085880   12.06660865588408   -0.30156250506122
H        -3.05654552009063   11.90562912450900   -0.63229542153183
C        -1.71888375069268   11.65138607861063    0.99821260746938
C        -2.75375629687360   10.98091614704573    1.84253778174650
C        -2.96283087988906    9.78922970383224    3.85688905503235
C        -3.22250278561153   10.11516077315190    5.19470289679855
C        -3.97046131962889    9.28918736466177    6.01445803809722
H        -4.15523777853777    9.58517869538852    7.03437722693530
C        -4.48035100464750    8.10480425812520    5.51125977631837
H        -5.07992354160215    7.46578450184262    6.13996425497323
C        -4.20684015071826    7.72717741666811    4.20778158443734
H        -4.57089165460128    6.79113306850061    3.81474292332021
C        -3.44506098720962    8.55218520397842    3.40097718900804
C         1.65487454952301   12.82443626349990    1.42689288849426
H         1.77692116891375   12.64996455489964    2.48473879380632
C         2.62635527326214   13.47019943720205    0.70965554251887
H         3.54711653670106   13.76213224173152    1.19184089834723
C         2.43139022181698   13.77383783575793   -0.64422229703542
H         3.21469323387690   14.26704017642134   -1.19957387587677
C         1.23689999650355   13.48180548954906   -1.24285557667474
H         1.05281882360615   13.75356239241230   -2.27171585076955

