61
CSD_code = NOBMOG | q = 0 | S = 0 | Stoichiometry = C27H25AgBN6P | MND = 4
Ag       13.12057630960545    7.23220045756428    1.34784114368763
P        12.37567694176630    9.44742921422455    0.71561997872531
N        15.03479626100359    6.48330242759892    2.42443200951192
N        15.09436320344788    5.15674824268689    2.56578033271111
N        13.46279845717586    5.40378860156580   -0.06856043541856
N        13.81611426824432    4.28824411779324    0.57498313095668
N        12.02082764753629    5.66839637405694    2.69172026145164
N        12.67455507354265    4.50988276263087    2.80905701092436
C        16.23863273973005    4.81649226630752    3.17505388659725
C        16.95255981468326    5.96597588698674    3.44072586633407
C        16.14481851997509    6.98690838735579    2.94522291927856
C        13.97470983995174    3.28825726227240   -0.30337969847437
C        13.71412883216976    3.77075458614162   -1.56858375209671
C        13.39594777516447    5.11074792840747   -1.35971643001738
C        12.00777924638562    3.69419533348255    3.63764112923328
C        10.87550509350862    4.34665211218302    4.07779937850094
C        10.93571909731380    5.58819672259310    3.44905634263727
C        10.26971900507843   11.15054218195238    1.58172326831786
C         8.95507884769507   11.37590344606527    1.95090699267701
C         8.04500436121971   10.33161661104005    1.96778241126304
C         8.44945391796155    9.05220350572153    1.61925280865701
C         9.76212572984906    8.82088955581954    1.25469420136933
C        10.67757634695766    9.86915060445762    1.22688898250462
C        13.65174892719021   11.98765743317218    0.54216503396022
C        14.36702212943564   13.03306764943569    1.10078572382598
C        14.74286067718320   12.99050339687259    2.43306883072203
C        14.41114581979874   11.89312488049971    3.21325612741354
C        13.70415722289115   10.84407849890464    2.65880828667155
C        13.31004648298718   10.89000970777668    1.32356060662024
C        11.36266647887112   10.54717078665401   -1.70272958189670
C        11.40125701174561   10.72237383514772   -3.07494992352809
C        12.38639990474143   10.10795583275046   -3.83091176282555
C        13.33653087781372    9.30808129650306   -3.21522466148997
C        13.29909919598090    9.12551887691092   -1.84583478441440
C        12.31765095820158    9.74990425460385   -1.08107044791042
B        13.99919564205757    4.18256937454834    2.09845597211551
H        16.47598090824180    3.79262068106342    3.38152602424961
H        17.90727089306310    6.05268719600771    3.91784561501333
H        16.31645420725592    8.04726213357894    2.94251760731897
H        14.25922668326022    2.30640077952934    0.01645821384493
H        13.74842681367712    3.23759808739878   -2.49661835482000
H        13.12280457395999    5.86224342810920   -2.07704160115560
H        12.37098721094379    2.71213179504271    3.86325579652401
H        10.12433363143643    3.98236363124399    4.74840068542619
H        10.25157841617863    6.41395440204813    3.51259481326964
H        10.97907174793553   11.96672395137303    1.57346527793524
H         8.63970745957710   12.37163447171822    2.22735840973921
H         7.02103659852899   10.51407466534529    2.25863624320849
H         7.74154186198508    8.23660647222041    1.63892476023643
H        10.09976609957172    7.82314989226554    0.99386356230128
H        13.36192763708010   12.02396190624924   -0.49869661708898
H        14.63202369450086   13.88533726777721    0.49191287734025
H        15.30040185031200   13.80964427512782    2.86259906363914
H        14.71082240934269   11.85585519278508    4.25032365197185
H        13.45159950506455    9.97108922126956    3.25035269682624
H        10.59069300654228   11.02519130880733   -1.11576552440777
H        10.65823129059012   11.34111883447988   -3.55695443177207
H        12.41003557607462   10.24804470486912   -4.90154606509429
H        14.10087148341905    8.82366643249891   -3.80511094491739
H        14.02560018052489    8.49063032021930   -1.34964005312561
H        14.32345760206933    3.07451453628129    2.37381713494169

