60
CSD_code = NOBSAY | q = 0 | S = 0 | Stoichiometry = C31H22AsMoO4P | MND = 6
Mo        8.61988895599886    1.53343527594309    1.49713881094158
As        8.74166282939128    3.06166709455658   -0.41006915353468
P         9.34704700341928    3.52573199928535    2.58192800592398
O         7.57329155300957   -0.88707861908717   -0.11057814449168
O         8.55195865211705   -0.00997377941300    4.16595519146612
O         5.70919845363608    2.45533489912517    2.02216558409530
O        11.52173450986355    0.60469074476296    0.93190338663767
C         7.96759323124050    0.00179530475496    0.49095430533186
C         8.58070772479963    0.53983329446361    3.16604229777730
C         6.78709492755342    2.12476820880597    1.82266847837673
C        10.45641758081654    0.94944027204685    1.15633349069122
C         8.63587187639825    4.86618443391628    0.31571237835925
C         8.26349961965951    6.00340705742656   -0.58015957066281
H         8.90188852676633    6.00783752956450   -1.46806420516960
H         8.34691169023052    6.96495581480534   -0.07301240278416
H         7.23317419410148    5.87239541590651   -0.92282914620086
C         8.94039978439865    4.99844303174412    1.60742981577629
H         8.96263854968609    5.95808170444362    2.12216243687743
C         8.83755740154335    4.00586454384852    4.24706917552953
C         7.54831151880503    4.02529367422700    4.74935040982819
H         6.71186657558930    3.76151984211322    4.11664745705699
C         7.34617759434290    4.38389749479535    6.07257328087399
H         6.34501853233744    4.40530736989895    6.47682351259638
C         8.42463583025291    4.70684616831855    6.88296515726804
H         8.25416387779693    4.97755228414847    7.91469209548570
C         9.71779309441921    4.68147769625877    6.38817440266018
H        10.54909566560965    4.92940441714983    7.03157180701925
C         9.93586047281996    4.33173737003587    5.06326817104288
C        11.20997342340662    4.24905499458208    4.36138111077546
C        12.47848907407826    4.50779880515324    4.86125277930656
H        12.60941269102605    4.80770065424075    5.89047689057569
C        13.57902884458850    4.37694885497640    4.03064673575713
H        14.56642771689123    4.57803710335448    4.41984064544917
C        13.43178537019823    3.98673977944660    2.70734979979642
H        14.30187790059229    3.88476902952295    2.07575229031151
C        12.17280965492150    3.71780672610129    2.19535518379181
H        12.04932533237579    3.39921043102912    1.16649905327432
C        11.07088752372402    3.85339518419717    3.02007921230541
C        10.39134342846948    3.15978019104140   -1.41651409285946
C        11.33325523809370    4.17365404781969   -1.29774327565299
H        11.13459187682500    5.02355972488874   -0.65048621561925
C        12.53189065744330    4.09371595051988   -1.98923901451576
H        13.26262412164489    4.88415724279766   -1.89109856605657
C        12.79642804396587    3.00222753032418   -2.79829681462440
H        13.73285356945821    2.94196178618327   -3.33284427120576
C        11.86503760252937    1.98114583825218   -2.91609329133995
H        12.07673560177834    1.12530789723921   -3.54033299088253
C        10.67150171741818    2.05910638252671   -2.22370006056363
H         9.92997317186711    1.26090233810202   -2.28879672415571
C         7.46987263448575    3.12003184175435   -1.87497257668605
C         7.75004530782567    3.73046919811758   -3.09496175397445
H         8.72681250568156    4.17779770982391   -3.25868657711967
C         6.79828342681138    3.75257306127217   -4.09908736483977
H         7.02194979740898    4.22690724893633   -5.04398540339517
C         5.56031070139960    3.16378927968476   -3.89575454669407
H         4.81968922743502    3.18197434022976   -4.68153460261553
C         5.27697442152265    2.54261251029437   -2.69071959102674
H         4.31638775197282    2.07332408639648   -2.53612691985014
C         6.23043229145625    2.51763175560987   -1.68694226794942
H         6.02572914619034    2.01685793175491   -0.74313380850776

