40
CSD_code = NOBSEC | q = 0 | S = 0 | Stoichiometry = C20H13AsMoO5 | MND = 6
Mo        2.13089339143123   11.36693852915617    4.88025996238784
As        0.49911253782987   10.36952449077090    3.30902426003742
O         4.24345701221344   12.58744816449622    6.77655535460757
O         1.10991396383330   14.19154921112997    4.09026011723302
O         4.09666417793241   11.46733822633361    2.47863581760134
O         3.06495883087910    8.48282609903178    5.54763650754136
O         0.19148242512856   11.18946085522490    7.29739383618616
C         3.46132631024213   12.14043175409097    6.07945211056055
C         1.48310164778293   13.15832036728303    4.39674117598817
C         3.38830219084970   11.43956182713336    3.37146435993754
C         2.73649433257207    9.54929975033903    5.31375553947245
C         0.87418908164542   11.25505516761659    6.38751321739961
C         0.00950159886159    8.48510036469698    3.58384093171152
H        -0.72087894636945    8.15673321046063    2.83031072015509
H         0.90867640351999    7.85530026196337    3.53330405583679
C        -0.56010454847200    8.41866299759357    4.91138456752470
C        -1.02046336811817    8.43282260913947    6.01788816111948
H        -1.42899084843283    8.39467379464925    6.98423463405556
C         1.02494628927658   10.39870319807073    1.44845047502655
C         1.03848717793976   11.64452983423746    0.82587550758380
H         0.69845749763728   12.51472764372431    1.38779769454701
C         1.47725861055912   11.77416574575037   -0.47795582487574
H         1.48345524171325   12.74362936609258   -0.95453748460526
C         1.91763974168018   10.65658847120046   -1.17079470366835
H         2.26585598527143   10.75549407975055   -2.18811552068396
C         1.91983860517108    9.41633620489047   -0.55681627187938
H         2.27121259290037    8.54760018019420   -1.09488084193388
C         1.47764158006011    9.28663980802593    0.75031592025589
H         1.49301337095604    8.31265514625586    1.23156115712501
C        -1.28558190611980   11.09958083934282    3.14915634105246
C        -2.09501263966281   10.74692978179841    2.07282066502352
H        -1.70079964477564   10.08755155063517    1.30243477592188
C        -3.38328851515657   11.24002791878727    1.97601497517332
H        -4.00637095429903   10.96543031880397    1.13698012588062
C        -3.87399044394095   12.08819604750425    2.95640865800375
H        -4.87978706771739   12.47390432628229    2.88032432299900
C        -3.07587767371863   12.44312779915316    4.03066552197170
H        -3.45849456648194   13.10540736068885    4.79347026199622
C        -1.78484825144519   11.95029568302654    4.12579990595701
H        -1.15039122319478   12.22623101469576    4.96476900979836

