115
CSD_code = NOBVUY | q = 1 | S = 0 | Stoichiometry = C56H51N2P4RuS(1+) | MND = 6
Ru        3.37570038514343    0.90775314574600    5.19480061457160
P         2.28654087089535    2.83268183229551    4.47877235820128
P         1.57448987908301    0.72733623050929    6.67146235245478
P         2.55535567518277   -0.83211871704433    3.84873330512619
P         4.87503858148075   -0.67633256011995    6.01254085113018
S         4.87099604617622    2.36330699568260    6.48430152771164
N         4.96937784591697    1.60568181270466    4.04987487396904
C         5.63130049049432    2.35603812947885    4.96642777673195
N         6.74290335234709    3.03437042741042    4.73808243701821
C         7.23417478812396    2.99287892514542    3.51856508779360
H         8.14898324190851    3.54671715352974    3.36139503254200
C         6.60989862863530    2.28851195927387    2.49265494796825
H         7.00152652666905    2.27493070233605    1.49033284550752
C         5.45510867906173    1.59725825897023    2.81535647883878
H         4.91517706573013    1.02338620501989    2.07128748864216
C         1.61881512556068    3.06531160509814    2.79801161826633
C         0.86243879751901    4.19085535392732    2.48242922663013
H         0.63603944335310    4.92554635714025    3.24292086898769
C         0.41946313271857    4.37880354864699    1.18677036982824
H        -0.17162316715139    5.24908659608243    0.94464310248917
C         0.73955461644805    3.46184107021065    0.19641965885641
H         0.39205948139592    3.61749119025869   -0.81333904277006
C         1.51405379399277    2.35504526396681    0.50037870510230
H         1.77909282562060    1.64348070031441   -0.26765477634838
C         1.95347393245851    2.16299313062640    1.79754848393590
H         2.55678116280851    1.30063906485968    2.05427105393934
C         3.28494457663907    4.35912272569974    4.54376013157783
C         3.40970844097773    5.15356218566543    5.67919610916768
H         2.84723937409265    4.93300672438745    6.57440552466667
C         4.27119727392847    6.23544400360792    5.67908189017155
H         4.35870371712805    6.84561980887410    6.56522153707076
C         5.02844066673839    6.52858146335507    4.55789578148765
H         5.70717857133807    7.36723834954797    4.56682878498493
C         4.91565331542941    5.73909757973195    3.42571068122869
H         5.50391222809567    5.95935522689636    2.54718754411766
C         4.05149602747773    4.66139800165571    3.41776321152714
H         3.96574686947556    4.04815820393087    2.52838268547951
C         0.83797461410810    3.15945176621699    5.57954054144736
H         1.19237677041158    3.71159830361047    6.45450196420178
H         0.09963747069188    3.77292555897078    5.05558350424780
C         0.71188090063464   -0.85204180153190    6.94385378594427
C        -0.64592691523746   -1.06220656672286    6.73058741864446
H        -1.27628719860807   -0.27417154639695    6.35014665262046
C        -1.20529726749628   -2.29740445513932    7.01050035426230
H        -2.26035741559691   -2.45259230593808    6.84285456759184
C        -0.42573950106585   -3.32680159928490    7.51022573780850
H        -0.87086546218733   -4.28497821539254    7.73018984635795
C         0.92605811915641   -3.12074314965869    7.73681724723570
H         1.53777661969189   -3.91556171125809    8.13778906546569
C         1.49004460997458   -1.89111273632940    7.45286454628775
H         2.54257076944666   -1.71211696121507    7.63982868536310
C         1.60336248437117    1.39553683442019    8.37869271120848
C         0.84353533657603    0.82441187947997    9.39537697329622
H         0.27545595799927   -0.07557033794174    9.21385247092099
C         0.81770549845158    1.40699715674211   10.65022835434868
H         0.22907154400512    0.95391322344791   11.43379099508556
C         1.53888107510000    2.56188941755165   10.90369737781133
H         1.51516410605043    3.01065219665132   11.88494806039724
C         2.29624245067466    3.13478287312443    9.89540882246814
H         2.86820920318237    4.03030608669439   10.08630166420827
C         2.32866527682390    2.55490740628255    8.64082482203266
H         2.95355525322836    2.98271197325098    7.86916144325265
C         0.23372375979222    1.83508626959476    6.02722239282161
H        -0.24538239424255    1.33139106843611    5.18462256183717
H        -0.50438376710894    1.99233269712213    6.82136395989534
C         0.76607815610821   -1.17952848205322    3.73017772423606
C        -0.05277922246768   -0.12102392654357    3.34041045115450
H         0.39516097606044    0.84845540787445    3.16155069159875
C        -1.41097403858835   -0.30353795043238    3.15527696416819
H        -2.02913913556083    0.52772237264925    2.84852130888663
C        -1.97095632127678   -1.55428887331136    3.35654567836037
H        -3.03039181156953   -1.70288185128850    3.21512775190847
C        -1.16233626545222   -2.61522647987080    3.72682791253380
H        -1.59144666991286   -3.59528697704646    3.87027273689681
C         0.19863003384359   -2.43714069458033    3.90644607772227
H         0.79995711991426   -3.28851308606781    4.18114650268061
C         3.01268571266544   -1.13460954707196    2.09419128719782
C         2.08555914954253   -1.15083268659834    1.05587155727340
H         1.04055763768799   -0.96623862382366    1.25356326726418
C         2.49877767569815   -1.40675037707205   -0.24014311172991
H         1.76883966800372   -1.42383762350499   -1.03561123393811
C         3.83392771434559   -1.64472383957385   -0.52085325049808
H         4.14892304941026   -1.84457704840734   -1.53331383572463
C         4.76387929721505   -1.62610236152091    0.50559431393886
H         5.80746189348646   -1.81109353855343    0.29751923633956
C         4.35258839253337   -1.37031811085116    1.80014329458863
H         5.07453932231908   -1.34846527596630    2.60261952973213
C         3.17678959737446   -2.40779696446928    4.61466793203231
H         2.46896376806745   -2.62000445909042    5.42246893324444
H         3.11937954886457   -3.20711019378577    3.86821804622821
C         5.02024612872718   -1.11519027701776    7.77280778184771
C         5.80286444513895   -2.20068697846982    8.16176409187185
H         6.33118655943968   -2.78696111782593    7.42182225236490
C         5.92308952385965   -2.51215117916916    9.50254622632738
H         6.52783591327202   -3.35449517252624    9.80329094192233
C         5.27821815183318   -1.74396066680604   10.46110723838436
H         5.37574297009348   -1.99629468210610   11.50588589233336
C         4.52570229215477   -0.64676393685292   10.07870814178106
H         4.03595714436174   -0.03180755014899   10.81872529415829
C         4.40378339784308   -0.33094089626517    8.73738297888341
H         3.83888826809032    0.53584497596354    8.42610959242681
C         6.64113251760095   -0.32576312552610    5.68561962268189
C         7.25010026453589   -0.56254459597805    4.45707057462604
H         6.71221529354747   -1.04661587995996    3.65446197117394
C         8.55946601461592   -0.17617771532827    4.23445615823812
H         9.01642973820976   -0.37176943155473    3.27539604259708
C         9.27586279758317    0.46489440639235    5.23004342328686
H        10.29435823604101    0.77270493621212    5.05050558546087
C         8.67763762742939    0.71279120178493    6.45422781668865
H         9.22608473161287    1.21815050253890    7.23400389033871
C         7.37192234986005    0.32367725367228    6.68194244090193
H         6.90917841068505    0.53531671126680    7.63592990457657
C         4.58143105009610   -2.32242618959965    5.20147117343730
H         5.34022520802840   -2.47708536920928    4.43141092481027
H         4.70987155531901   -3.10890601278508    5.95057261716280

