239
CSD_code = NOBYUY | q = 0 | S = 0 | Stoichiometry = C112H118N6Si2Zn | MND = 6
Zn       12.59992194800368    8.82857913643292   16.79370126333681
Si       18.16501863685829   18.24874171444288    6.94693481164395
N        14.08849883353963    8.78999727384768   15.39801577675958
N        12.06083164732111   10.70461907370223   16.19285836827385
C        12.67129067643291   11.44225082327050   15.24369703897728
C        12.03871477700316   12.72691866646966   15.12965738064423
H        12.32346519569332   13.49751949457158   14.43954089641952
C        11.03815699458784   12.74738950926903   16.04237752421748
H        10.36143837622919   13.55021040525733   16.26229788569331
C        11.05698722909639   11.46682021801313   16.69855198235640
C        10.17921005402298   11.08732647062469   17.71780953067972
C        14.99255516893708    7.79625551791022   15.19930676810627
C        15.96146367954760    8.20657921178207   14.21773923521391
H        16.80181440314767    7.62517908306100   13.89113938919483
C        15.61151283037654    9.45627539339061   13.83008405207597
H        16.10838376826710   10.09627817102838   13.12678178761295
C        14.43460112694270    9.80250388285069   14.57779752346320
C        13.77574971378501   11.04004114481170   14.47321809733127
C        14.27754909488725   11.95304149623832   13.53527839987635
C        14.72173220044708   12.73243488306614   12.71685068816985
C        15.24691349505163   13.62655153465352   11.77692829931690
C        15.89917123151132   13.12913602262323   10.62503436492536
C        16.00298321946650   11.74143964509796   10.37324966763587
H        15.55079472309531   11.05896292197162   11.07775643638871
C        16.64604006602337   11.27350029910734    9.26543313405115
H        16.71939939642182   10.21072140975906    9.08660276387104
C        17.21652904066307   12.17095898799256    8.34414961275708
H        17.72448579843549   11.78464697045539    7.47266032049315
C        17.12253391714302   13.51601041160280    8.54560490944319
H        17.54961386111995   14.21410196827046    7.84048413806734
C        16.46122678487384   14.03655857626521    9.68366953156206
C        16.34642801623554   15.42617197152561    9.89802982707558
C        15.67792468742287   15.92599841553312   11.03496870876582
C        15.54210142311032   17.31656619474288   11.26125386437041
H        15.95429635531494   17.99472720438231   10.52803735968183
C        14.90781808480493   17.78707560548171   12.37251105944519
H        14.80819926051288   18.85040253313804   12.53419913019542
C        14.38253624169324   16.89197677150274   13.32258428931242
H        13.89148623511067   17.27986195479723   14.20307736512035
C        14.49484408691602   15.54603185080894   13.13462548362526
H        14.10528867298548   14.85264470368856   13.86531956420444
C        15.13170312908785   15.01987667520105   11.98697206705220
C        16.91229682941311   16.32047165549681    8.97181786689577
C        17.41375605098850   17.08820885206902    8.17806406263991
C        19.97234615185629   17.68318632611597    6.59850140164967
H        20.62324788029178   18.18761369043367    7.32035518604888
C        20.14852030364801   16.18170455370581    6.81163580087299
H        19.86425010463832   15.90115776978732    7.82270364813605
H        19.53012218885171   15.61772327118756    6.11720851865240
H        21.18671452901191   15.89168950001632    6.65191951592610
C        20.45097496108742   18.07106992548074    5.20048894049956
H        20.35790821101226   19.14175380472327    5.03363439069473
H        21.49763962312321   17.79726357184036    5.06725930268635
H        19.87108817637566   17.55550436363785    4.43817135905297
C        17.05014214790442   18.19389810846384    5.38379496607100
H        17.52345939362803   18.76116252778047    4.57574624934473
C        16.85947834511365   16.75990155529745    4.89661271516486
H        17.81055620311939   16.30438284510556    4.63266260949899
H        16.39645217083179   16.15569717019629    5.67377158923106
H        16.21739061481034   16.73503409009604    4.01644307124611
C        15.68719146654495   18.82449811601550    5.65811890414520
H        15.78800652137318   19.87096972466840    5.93438601620668
H        15.05337464746859   18.76677648250606    4.77361244200715
H        15.18589257520908   18.30233844129731    6.47027049968212
C        18.74220506114872   21.06391348831474    6.88100697218359
H        18.24322280899629   21.10268354062389    5.91485909072594
H        18.65092602213072   22.04417705056062    7.34889273136604
H        19.80030472919022   20.87078408542765    6.71594115879399
C        18.13370867201569   19.98379239506569    7.77092079267902
H        17.08782504934284   20.25011485801448    7.95286511422953
C        18.83731615442876   19.96350955040804    9.12463932022530
H        18.40117240676680   19.20828719186937    9.77402761545598
H        19.89445422731353   19.73665426530200    9.00547479887768
H        18.75445359171426   20.93202384679262    9.61682397602230
C         9.13273896983210   12.05214031279760   18.11558722844141
C         9.09586724324734   12.54513055290773   19.41257581171410
H         9.85414353869193   12.21347581574532   20.10627956651263
C         8.11645334570676   13.44562175582249   19.80893480806803
C         7.17333950568844   13.84663539966802   18.86983423672176
H         6.41053709431144   14.54417366024424   19.16334926624667
C         7.18557393994123   13.37266196687678   17.56310428576773
C         8.17565143244683   12.46914394724599   17.20103095222452
H         8.21510332064423   12.06542290407251   16.20020510101919
C         8.11170951409052   13.94534304919822   21.24658239944731
C         9.44581508026652   14.64683599742785   21.53796454082732
H        10.28483576981387   13.96627118571413   21.42288978728797
H         9.45441774671553   15.02857054792818   22.55694228979221
H         9.58805553347215   15.48210560956126   20.85505048156416
C         7.93935098065224   12.74357266089235   22.18672401088838
H         8.74728282189212   12.02685209061173   22.06695254882482
H         6.99980596068358   12.23547056264638   21.97792206556902
H         7.92836920127207   13.07541217066448   23.22298926966551
C         6.98141532912353   14.93839483749835   21.53042107600148
H         6.00750619152448   14.48097313224443   21.37157410494195
H         7.06864047933443   15.82218381421839   20.90244090944643
H         7.03446379964599   15.25914349930710   22.56909129916291
C         6.16563842690431   13.80733320510090   16.52031874202472
C         5.41294704415127   12.57070380002582   16.00955101267295
H         6.08912497577771   11.85984961434479   15.54294433290966
H         4.66625606235553   12.86330791764059   15.27411301771307
H         4.90836262395099   12.07072024527399   16.83392344364449
C         6.90553217615546   14.48367686344811   15.35724899421567
H         7.45417689204931   15.35253393385476   15.71577724996884
H         6.19583414791667   14.81300807510370   14.60103200856870
H         7.61233220724626   13.80494457565623   14.88773912756465
C         5.13473190521404   14.79747399923303   17.06906243571613
H         5.61326549683895   15.70891818906883   17.42006765425977
H         4.56225482499212   14.35734351892689   17.88245586227700
H         4.43820049999926   15.06915250121710   16.27815396558426
N        11.14715963570029    7.90957330541451   15.30805798048445
C         9.90550459999002    8.35653211142349   15.19707748986191
H         9.65281033255732    9.20981500954797   15.80871141256707
C         8.96607614909573    7.78088194962105   14.35633493076462
H         7.96492344039648    8.17975963576091   14.30272875368374
C         9.34024789027336    6.68645823871995   13.59379795859098
H         8.63601466275018    6.20880546625676   12.92813495895184
C        10.63995061417982    6.21993360467217   13.70590133978942
H        10.97701969294710    5.37073497479446   13.13182706681681
C        11.50426480512721    6.86533865971179   14.57595409009220
H        12.52462332068023    6.53220049943086   14.69362434389103
C        15.02066313415763    6.56984847529490   15.86963552659700
C        14.14289318214202    6.19035828324062   16.88889605829595
N        13.13903168709463    6.95254715429329   17.39457982748109
N        11.11135907359709    8.86716221908998   18.18940839619863
C        10.20730487903766    9.86090914455160   18.38811517236328
N        14.05271957161495    9.74763270611657   18.27929920068012
C        15.29435155158068    9.30062002313647   18.39032604672171
H        15.54709319250495    8.44745707103819   17.77854134834622
C        16.23379565411163    9.87627257422213   19.23104904078002
H        17.23496927353450    9.47743708202336   19.28458628283820
C        15.85963869932844   10.97069943204595   19.99358756638095
H        16.56386679573420   11.44831599386528   20.65928255518408
C        14.55995247173056   11.43726452825072   19.88145603126626
H        14.22285965739951   12.28639057825202   20.45562582221660
C        13.69564828288137   10.79191322524473   19.01135225085385
H        12.67524717358635   11.12496547966603   18.89380641949923
C         9.23839293877731    9.45058502819413   19.36968008878993
H         8.39806183112624   10.03200002811847   19.69629640674667
C         9.58831092434994    8.20086660585285   19.75730068757380
H         9.09143848031023    7.56086058453871   20.46059897200216
C        10.76526163337042    7.85465810078674   19.00963620936272
C        11.42412818265743    6.61712289592619   19.11424601625615
C        12.52860465000999    6.21492768469916   18.34377371175318
C        13.16117018801726    4.93025281610721   18.45779626823202
H        12.87644745199135    4.15966770760411   19.14794101218006
C        14.16175642844224    4.90980530370381   17.54510298529915
H        14.83851116924649    4.10700879130793   17.32521471360557
C        10.92199904340467    5.70391250582985   20.05181537443852
C        10.47808429544083    4.92464919181607   20.87050447527662
C         9.95319243319273    4.03047708542104   21.81053082683204
C         9.30082459698730    4.52784845046586   22.96237792948177
C         9.19673943850665    5.91554400657400   23.21404312103412
H         9.64879846925632    6.59804669458074   22.50947874024944
C         8.55363435176283    6.38345084215459   24.32184387735449
H         8.48011577549659    7.44622937321518   24.50060826538531
C         7.98335340036707    5.48595557517791   25.24321872454133
H         7.47534844217905    5.87224041972937   26.11469130153634
C         8.07759802787445    4.14090504135859   25.04186588572974
H         7.65067152557538    3.44278960768794   25.74705482734985
C         8.73896278050329    3.62039080415386   23.90382060067995
C         8.85403537184681    2.23078319276304   23.68957141558021
C         9.52249804121838    1.73100346716798   22.55259022390808
C         9.65850135159465    0.34044371042524   22.32636545616398
H         9.24645872746268   -0.33773679796262   23.05964814295499
C        10.29275614382574   -0.13003398711801   21.21507912262736
H        10.39251177338121   -1.19335549457999   21.05343750638286
C        10.81780420772908    0.76509021865457   20.26490082988566
H        11.30886528416754    0.37722581568062   19.38440507268656
C        10.70531460313767    2.11102939704867   20.45279780341529
H        11.09471969542362    2.80443322729092   19.72203846570370
C        10.06851657031009    2.63715691275905   21.60050223216741
C         8.28855419778054    1.33642666153048   24.61596414807640
C         7.78748074516276    0.56860787079219   25.40988068375613
Si        7.03713708217852   -0.59190379501640   26.64159168429695
C         5.22981920373026   -0.02680398324854   26.99080731937832
H         4.57869538014112   -0.53146548757395   26.26931635386514
C         5.05317536861918    1.47461189553640   26.77760168093462
H         5.33674880541363    1.75509127720142   25.76631782832281
H         5.67187810455292    2.03882689753731   27.47156776200537
H         4.01501343707815    1.76440446907633   26.93793309532151
C         4.75195519852025   -0.41466738676618   28.38908716184672
H         4.84530128407922   -1.48532319410026   28.55596899317103
H         3.70530703138909   -0.14104149648638   28.52282024645956
H         5.33213023977831    0.10105123196519   29.15108062227943
C         8.15272643779118   -0.53634984788164   28.20419919639947
H         7.67997227068331   -1.10357394716637   29.01260515561441
C         8.34312554252331    0.89783267000505   28.69093678463758
H         7.39201843945797    1.35309863887889   28.95521437489990
H         8.80559273296220    1.50199787225110   27.91341537642267
H         8.98560735476531    0.92313418003624   29.57080526038012
C         9.51575435576833   -1.16657050333374   27.92939652681164
H         9.41517246531752   -2.21318026978997   27.65356613172935
H        10.15000086669583   -1.10829650504112   28.81355748275839
H        10.01645679685405   -0.64452947677752   27.11680264392465
C         7.06848228608736   -2.32711306005920   25.81793556129833
C         6.46081073300024   -3.40726587699903   26.70837489463020
H         6.96056940026927   -3.44593254227230   27.67412413498456
H         6.55181717093955   -4.38754277720072   26.24046004836872
H         5.40282549856968   -3.21424705735142   26.87427908397624
H         8.11433441774872   -2.59317955040157   25.63543857510221
C         6.36408256612644   -2.30728027744628   24.46462020082905
H         6.79970565996636   -1.55212196480354   23.81480863602327
H         5.30697303833590   -2.08059549238575   24.58435279768613
H         6.44683606163780   -3.27589086087590   23.97260405766420
C        16.06717093328278    5.60505555965750   15.47190826032665
C        16.10411790319539    5.11204866013823   14.17492953427624
H        15.34585608959060    5.44365832559536   13.48118882353898
C        17.08359088851843    4.21159719569767   13.77862526684165
C        18.02667730419240    3.81063099263414   14.71777416761015
H        18.78952323995615    3.11312177697096   14.42430356916705
C        18.01436477988723    4.28462024550931   16.02449738140290
C        17.02423714750187    5.18810534745140   16.38651167217033
H        16.98472806811484    5.59184484690183   17.38732779782937
C        19.03425851513640    3.84999887809890   17.06734342163899
C        19.78689933970452    5.08665973291491   17.57810992887336
H        19.11068258064296    5.79751523325308   18.04465897616268
H        20.53355344209712    4.79408848999452   18.31359805399136
H        20.29152192673346    5.58662782040052   16.75375103567920
C        18.29431702316460    3.17366578901866   18.23039035215382
H        17.74573358828696    2.30476826808067   17.87186517674165
H        19.00398115463728    2.84439795567531   18.98666560527603
H        17.58745716833880    3.85238383994324   18.69983028721534
C        20.06520640865354    2.85986128597021   16.51867415039378
H        19.58670440031025    1.94839834854759   16.16767179853651
H        20.63771641495551    3.29997934993976   15.70529702271805
H        20.76170278057663    2.58822014324619   17.30962624854874
C        17.08843471128245    3.71187132093795   12.34097879288548
C        15.75435669505193    3.01036567421549   12.04950299680314
H        14.91531414996497    3.69090914345281   12.16454378370176
H        15.74582085355371    2.62865578429807   11.03051537813242
H        15.61209328866960    2.17507513313270   12.73238723118756
C        17.26084751105663    4.91364644583948   11.40085437578259
H        16.45291639090163    5.63037525315613   11.52059332587348
H        18.20039008156203    5.42173577540685   11.60970474382643
H        17.27187615001137    4.58181291858347   10.36458749845217
C        18.21875177293176    2.71882763498879   12.05720014502737
H        19.19264604501107    3.17625442447917   12.21611516200152
H        18.13148966510060    1.83504159505644   12.68517820713183
H        18.16577777698598    2.39807753706560   11.01852534830888

