69
CSD_code = NOBZUC | q = 0 | S = 0 | Stoichiometry = C30H29MnN6O3 | MND = 6
Mn        6.80321473167783    1.73278736983542   11.04344976537151
N         4.75941126790642    1.90736292439103   10.55405329867395
C         4.39346274046033    3.13692352106811   10.43818335772979
H         3.40329420767037    3.41912971794582   10.07433449759790
N         5.23861204349295    4.11826780709801   10.76952692468420
C         6.57919003729467    3.69471867289760   11.21735515093892
O         7.32934883414434    4.59184690942112   11.51956330458057
C         3.92686270308790    0.88617527874413   10.08268139396842
C         3.40618380751338    0.90415993364009    8.79101487574531
H         3.60212294383073    1.75290020226735    8.14757711838216
C         2.67679368730115   -0.16101220745080    8.30567126056573
H         2.30982323312766   -0.10526129580873    7.29392157885682
C         2.42790417921106   -1.29294183553971    9.09368313160755
C         2.91979642772021   -1.27927206614002   10.40776673031809
H         2.72822265461298   -2.10355550264298   11.07419854525040
C         3.65518548234572   -0.21883253201545   10.88637715417631
H         4.02829147286206   -0.23036686857338   11.90095343337145
N         1.76447164766805   -2.38575101487957    8.58156469435687
C         1.00880370634061   -2.24569984320895    7.35920170146919
H         1.67748339037040   -2.06754419797802    6.51314384104601
H         0.28689095410545   -1.42255188486872    7.41322040245966
H         0.46291837642332   -3.16551316323330    7.16371692428300
C         1.43174554592862   -3.49083355655594    9.44665852760883
H         0.99779074663327   -4.29255494956713    8.85268619164891
H         0.71495345346627   -3.21223796550463   10.22940363879167
H         2.33441909261838   -3.87910010476989    9.92126963432238
C         4.81562653467500    5.46659399189067   10.82515515063758
C         3.62753055907592    5.80813538618783   11.46024388588834
H         3.02347545497443    5.03630142504368   11.91635440287638
C         3.22069965660744    7.12302863772621   11.53786199466296
H         2.29592023574185    7.33719863206284   12.04720636124011
C         3.99466425967904    8.15777743834217   10.99294185541728
C         5.19386630653101    7.79533827660198   10.36330121780106
H         5.83373603059636    8.54630859237151    9.93159057552560
C         5.59307936818044    6.47852718338383   10.27671323140294
H         6.52417523238009    6.23537888362699    9.79086770643457
N         3.57990224663408    9.47026772157242   11.04354731949890
C         2.45236903269795    9.82545612377326   11.87146952420457
H         2.26551766861663   10.89364961477646   11.78568033587917
H         2.61840161678336    9.58671980462569   12.92922876219125
H         1.55590591161845    9.30338634930136   11.53133895495902
C         4.52032442021993   10.51779229669511   10.72098071571567
H         4.81315248567036   10.45392201535716    9.67075783297759
H         5.42331510748453   10.46912264319598   11.34074270844454
H         4.04931009982806   11.48577206444289   10.87593270848988
C         8.52621585070961    1.82671644654548   11.47357975687540
O         9.63049194981129    1.87720905574917   11.80253253772659
C         6.46527891520306    1.54377153486994   12.77238678542731
O         6.28696371594237    1.44499958996361   13.91251958275814
N         7.06048476609889    1.93753645498374    9.08957889960424
C         6.65187255248118    0.85479954606797    8.38715166603934
C         6.49278749147068    0.89970170594586    6.99910534149568
H         6.13262213787111    0.03380956435625    6.46738236006008
C         6.79097723655328    2.05961564053084    6.31732056550980
H         6.66517420652647    2.11787576033491    5.24668682904393
C         7.27222667845660    3.14755722650340    7.03954294840149
H         7.54428039815915    4.06705988526649    6.54662932805894
C         7.38666798087619    3.03731062126458    8.41145813693186
H         7.75805382986411    3.86897221068520    8.99628036406117
N         6.70661541062446   -0.15391206799575   10.51712667503260
C         6.45053041476353   -0.33591869742183    9.19655353001754
C         6.07588711101462   -1.57693234243173    8.67759382121726
H         5.84799218895845   -1.67994212717164    7.62893945265097
C         5.98822860931806   -2.66714526654923    9.51437035365294
H         5.69073979514233   -3.63250851698468    9.13504650514483
C         6.30914812767943   -2.49079175159445   10.85848075420069
H         6.28115357484684   -3.31905995562246   11.54848194001048
C         6.65430908838599   -1.23373850694065   11.30534552758310
H         6.90062837342235   -1.07450643990680   12.34791401643867

