31
CSD_code = NOBZUB | q = 0 | S = 0 | Stoichiometry = C13H12Br2CdN2O | MND = 5
Cd        2.70912703768591    3.40766244281496    3.47118028938701
Br        2.72944628849947    3.71453144007583    5.93604904174736
Br        4.44499030989254    2.26298529435768    2.09441383137607
O         1.80701469615001    0.93109417020030    3.86314694249162
N         1.26722974043074    5.32498282838375    2.88580268774299
N         0.73380350513263    2.71711208232551    2.25210244900623
C         1.46616943166612    6.56889147182497    3.28298397456161
H         2.41470291900499    6.77123399640417    3.76706456174499
C         0.52789570882501    7.57763000186659    3.10684344790016
H         0.73514064379955    8.57817523555404    3.45001883046582
C        -0.67060807610187    7.26401111821097    2.48469250806697
H        -1.42484720600305    8.02020035171923    2.32676593700118
C        -0.88686918854659    5.96062835178323    2.07386743565649
H        -1.81070137582202    5.67472517497098    1.59462560824660
C         0.10680953269915    5.00522489812890    2.29841416737889
C        -0.09963888789203    3.61908013373328    1.91041033640128
H        -1.01293375442197    3.40408680651658    1.34873818518458
C         0.66012337192267    1.39530788351228    1.86780319771095
C         0.08140216332992    0.97045851599284    0.66940738342940
H        -0.36233250023497    1.70037309164312    0.00899515161948
C         0.13657417933402   -0.35542008897235    0.29526693174383
H        -0.29708457770546   -0.66952176004962   -0.64110915539178
C         0.76903532248660   -1.27653448037215    1.11586768865657
H         0.82227003367117   -2.31304922835653    0.82071886159165
C         1.34957531687157   -0.88272405989283    2.30840140590598
H         1.84977510885422   -1.61686545533751    2.91813169260841
C         1.30560848390401    0.44952248574712    2.70303591203685
C         2.56485250285135    0.05997825026676    4.68927202213703
H         1.94718736675103   -0.76390410910836    5.05712294868508
H         2.89478572620451    0.66710432349353    5.53309934852137
H         3.43559617675983   -0.32628116743022    4.15106637637602

