38
CSD_code = NOCCEP | q = 0 | S = 0 | Stoichiometry = C13H16N4PdS4 | MND = 4
Pd        1.48666652461135    1.72449855630139    4.71964232915690
S         2.14377911683615    2.73936593324968    6.68586873675410
S         0.97776654877410    0.66005961337146    2.78439678294689
S         1.32874043577304   -0.24781489654489    5.90727026141279
S         1.48364879761618    3.71520359372784    3.63608070912826
C         3.55076514878571    2.93884407273478    9.25027538264980
H         3.87486106362201    3.46233692938073    8.34484798266593
H         4.40791523733300    2.83080196403252    9.91590543160299
C         2.48768441490878   -0.05685522945425   10.59454360443919
H         2.40455200046890    0.59090311517788   11.46689194934272
H         2.77496370395165   -1.05269622726327   10.93170003682875
N         1.28843560805175   -0.62337486460151    8.52230247734069
N         0.93041128431024    5.20137504106857    0.35161467467177
C         2.31659290238582    1.44954506182954    7.78190083514432
C         1.09106886613039    3.26760651825224    2.01009428920317
C         3.55026267819793    0.46551448663999    9.62331003476908
H         4.45738016437975    0.73592342216325   10.16527640418619
H         3.80480620139851   -0.32800893598427    8.91263927438894
C         1.14358079127702   -0.09479515083238    9.86139116963620
H         0.43147536661241   -0.71565722463210   10.40554089386008
H         0.73492137596700    0.91946205702283    9.80313946454199
C         0.99962839338037    4.32118926847903    1.08483721757845
N         3.09255894474608    1.61767447112965    8.88225926838631
C         0.88450500254393    1.95942106510499    1.64359746493920
C         1.66234129679900    0.20210299454451    7.51226282495088
C        -0.75517766398149   -1.91810745254851    8.00171840456298
H        -1.28666905573289   -1.53300555195197    8.86883939534758
H        -1.10485648324117   -2.92552563539858    7.79813516278035
H        -0.98662484593352   -1.29301704702943    7.14401689370237
C         2.45430621773095    3.75001772615923    9.93578836483645
H         1.60432232708185    3.87292391023397    9.27009847849975
H         2.83465739732730    4.73465729737917   10.19004271168122
H         2.12279820849903    3.25825729208197   10.84750386918656
C         0.75172106047427   -1.93869541090242    8.24873600065443
H         0.98577217952479   -2.57536579561931    9.10605807906965
H         1.25989621535594   -2.33745427053633    7.36838835951600
N         0.33481210542895    1.27259552648273   -0.75270940257094
C         0.58163046859934    1.59779377675235    0.31999418221210

