61
CSD_code = NOCCEO | q = 1 | S = 0 | Stoichiometry = C20H36CuN4(1+) | MND = 4
Cu        4.32854456774184    3.85191105595636    3.89248366258803
C         2.80687697552176    3.85202091906932    4.91766053451442
N         1.82397776431303    3.85253402165657    5.52642362670577
C         0.61980429894873    3.85093453252161    6.25920795946932
C        -0.15876084853584    5.11274598981454    5.87933833317787
H         0.41546135333265    6.00458329752965    6.12080058492038
H        -1.09395579848032    5.14171772888496    6.43102807397822
H        -0.38228064575967    5.11934860116613    4.81466771311834
C         0.97581175395188    3.84982159993230    7.74754429539887
C         4.32977607766984    2.33947953956033    2.85368480646731
N         4.32816865933238    1.36628452676474    2.22933700994830
C         4.32900727290879    0.17984856615707    1.46820712830370
C         4.54628628882478   -0.99065333563288    2.43035804556042
H         5.49969942968936   -0.89272624777786    2.94488013697832
H         4.54631197143548   -1.92295588759739    1.87310128723950
H         3.75242319675382   -1.02914122121037    3.17310616514198
C         2.97260163426481    0.07177415448868    0.76767205926815
H         2.16555961134923    0.04484134120572    1.49664143112404
H         2.94022461228606   -0.84088205350685    0.17966836962294
H         2.81442087593156    0.91911235147141    0.10415647372705
C         5.46895826235924    0.27673861776804    0.45168067881048
H         5.32061597837849    1.12624865727095   -0.21133363428515
H         5.49992193327615   -0.62957632686276   -0.14611469895049
H         6.42506681987387    0.39306676275487    0.95737206683386
C         5.83657122195874    3.85117170664299    4.93706663681607
N         6.80880271437949    3.85034931863498    5.56302774632185
C         7.99729167913538    3.85120557024854    6.32106946609835
C         8.00129048991536    2.58967697389291    7.18748048939870
H         7.14798119903188    2.58467086892001    7.86208158863539
H         8.91200240379764    2.55898179196534    7.77860122398264
H         7.95925072779239    1.69752646054721    6.56642608792447
C         9.17394302425692    3.85080442327169    5.34190972903135
H         1.55688264709721    2.96615042257108    8.00211583981101
H         0.06426340218317    3.84835647766707    8.33817663104871
H         9.14563851896851    4.73401792492886    4.70747752828854
H        10.10761962867247    3.85140046439513    5.89691447879940
C        -0.15658780736533    2.58854853553731    5.87665490833038
H         0.41923970546019    1.69727893785605    6.11639751450019
H        -1.09174299774407    2.55672748573838    6.42821513638315
H        -0.38003335932243    2.58360666485905    4.81194188071271
C         4.33296883158106    5.36419887330511    2.85352083465090
N         4.33130950649421    6.33721779965252    2.22886736454509
C         4.33089137829950    7.52344974120578    1.46742002837525
C         4.54888190159293    8.69425184492135    2.42901471320405
H         5.50302208945595    8.59680635371258    2.94228583313034
H         4.54789035772595    9.62635525473808    1.87143252420579
H         3.75598192210691    8.73270963445346    3.17281427987745
C         2.97349549469004    7.63068035770924    0.76861765874738
H         2.16741078390792    7.65716918256304    1.49866303965546
H         2.93968075133101    8.54313100380206    0.18036636690694
H         2.81507180628971    6.78299744547657    0.10563448986840
C         5.46965590907877    7.42661198505455    0.44958475891062
H         5.32088131410267    6.57697828861621   -0.21317741605306
H         5.49938303020623    8.33287002056732   -0.14830761106181
H         6.42647746700806    7.31086013936230    0.95405329393298
C         8.00075904788304    5.11397354530360    7.18572093506876
H         7.14744605741125    5.11957900904277    7.86030276805208
H         8.91143576515876    5.14604373987169    7.77682943171081
H         7.95826953939042    6.00520691951498    6.56338839112271
H         1.55538569162331    4.73392311500617    8.00408779670787
H         9.14606611106707    2.96673452705785    4.70865152269874

