31
CSD_code = NOCCIT | q = 0 | S = 0 | Stoichiometry = C13H12CdI2N2O | MND = 5
I         2.71803390409327    8.30740706347284    1.44207886858996
I         0.05097122834428    9.45646003897004    5.47952237887527
Cd        2.15490831889400    8.61401358232009    4.04944402534424
O         2.96581268900818   11.16348002719527    3.91563721441348
N         3.47762933717201    6.68897349772942    4.82680483791930
N         3.97379201822958    9.29846781027321    5.50175167574817
C         3.29164966488621    5.44086726648359    4.43521199547225
H         2.35104721396314    5.22916013095938    3.93876860634356
C         4.23139571602258    4.43735699237266    4.63170610369202
H         4.03353236569251    3.43382564531785    4.29163152676583
C         5.42060861425919    4.76045628603042    5.26699247981212
H         6.17719945902777    4.00942893226930    5.43735971926709
C         5.62242350131822    6.06622513332767    5.67742590301123
H         6.53677929836545    6.35934550196254    6.17035112681768
C         4.62589587259905    7.01423684246388    5.43529216876459
C         4.81060137144455    8.39863192086948    5.84094739007219
H         5.70783904861970    8.61418113140030    6.42818149106099
C         4.03323049575699   10.60810605728708    5.93517534724507
C         4.55798209344165   10.97932434339030    7.17495080546495
H         4.96174563529217   10.21843398431992    7.82610374692570
C         4.50055324563757   12.29042056484867    7.59911606360905
H         4.89270401751350   12.56097412095022    8.56677977115637
C         3.92161996318100   13.25143620149966    6.78609639903934
H         3.86826276717550   14.27703492690096    7.11691151916838
C         3.39239769396306   12.91020837581046    5.55360407003728
H         2.93332827167277   13.67526077617869    4.94933516310103
C         3.43506900363655   11.59344986439259    5.11207060067066
C         2.31065007607435   12.09470830859204    3.06974583860999
H         2.99107067666696   12.89687601513802    2.77081816793384
H         1.42414888691506   12.51186000228624    3.55708440633888
H         2.01021755113553   11.53258865500109    2.18470058872925

