38
CSD_code = NOCCAL | q = 0 | S = 0 | Stoichiometry = C13H16N4PtS4 | MND = 4
Pt        1.49930267239068    1.72127892152839    4.73911348928468
S         2.23144181476355    2.69656383164542    6.70615001892034
S         0.89813708050370    0.68714995843357    2.79820325043568
S         1.28016458855165   -0.24745112141338    5.93519873484679
S         1.58548247631098    3.71827394084023    3.64463323723782
C         3.61592178871153    2.87366056205172    9.27686583190898
H         3.94934227501042    3.39718201012549    8.37459819376643
H         4.46983712367002    2.75608383037765    9.94508124594299
C         2.56972199359437   -0.13971701491597   10.60502037008756
H         2.49567114357241    0.49700408669405   11.48624475612359
H         2.86406319981620   -1.13886555933000   10.92591467961877
N         1.34979232637848   -0.67958364929878    8.53804659300686
N         1.06290585639876    5.22450456393935    0.36747010465689
C         2.36681080811906    1.39954362467792    7.80367771602373
C         1.14227644164151    3.28864450277680    2.02858305307968
C         3.61720951117010    0.39785337429615    9.62608489846251
H         4.53060344070105    0.66487065326174   10.15912867497206
H         3.86490893230158   -0.38645691561098    8.90292575341213
C         1.21781852431305   -0.17226740440461    9.88671723617463
H         0.51423711258046   -0.80438568074284   10.42910493739275
H         0.80438706356608    0.84087261887885    9.84823260767754
C         1.09462921998802    4.34375284860850    1.10256214950961
N         3.14612092047016    1.55756800793738    8.90535058112513
C         0.85615051452252    1.99431871960353    1.66581194066426
C         1.69321640856303    0.16862521652395    7.53375024048582
C        -0.68816920648874   -2.00612142730980    8.05983248577588
H        -1.19774903957487   -1.63383435348462    8.94547791526637
H        -1.02422945015731   -3.02014543993288    7.86592065121278
H        -0.96146275506563   -1.38414494601919    7.21252779288519
C         2.52592249770481    3.69371371559395    9.96210008050062
H         1.67950850045501    3.83000847151362    9.29440067396728
H         2.91645462987329    4.67251891571068   10.22348371474944
H         2.18531444280251    3.20027516353860   10.86956867439126
C         0.82632754844319   -1.99827612189724    8.25646918987344
H         1.10064412912304   -2.64613359330916    9.09364398713019
H         1.31267249863356   -2.37235350292463    7.35322447885270
N         0.22502783221118    1.35131853050921   -0.72193884867482
C         0.50958513442308    1.65565066151639    0.34741890925506

