102
CSD_code = NOCFOA | q = 1 | S = 0 | Stoichiometry = C54H44P3Pt(1+) | MND = 4
Pt        2.89829928828570    2.89191373775450    3.23114412509746
P         0.89658987170569    2.17550312282236    4.10585845090548
P         3.94063475415364    3.46470797584866    5.25548236191830
P         4.57020436894735    3.58262205252398    1.78014605558326
C         3.39164460746226    3.03139441668745    0.52039158070852
C         2.33176145208469    2.51405082831695    1.28921043522839
C         1.27790914498674    1.91959695182578    0.60715277611411
H         0.44100537761641    1.48215827437549    1.13677174465146
C         1.29521067429620    1.87435275968304   -0.77979874958846
H         0.47062024665591    1.40944991359458   -1.30028857977269
C         2.34587556445347    2.40958494777800   -1.51157165439972
H         2.32644514703042    2.36297254118654   -2.59010152117681
C         3.42261949638704    2.99011797185703   -0.86427325458170
H         4.25633454739980    3.40086288693139   -1.41602058483427
C         5.16148419083488    5.23788867221785    1.36596747913054
C         4.29644160808260    6.11916391568505    0.72149770960472
H         3.30941044251117    5.78285520092060    0.43127567826824
C         4.71032689885935    7.40890952785854    0.44667431251489
H         4.04580640076625    8.09046726039377   -0.06264744982475
C         5.97784151045823    7.82614149158942    0.82297247632145
H         6.29930525765905    8.83306435183986    0.60497867067434
C         6.83238283253736    6.95422535311326    1.47912482630647
H         7.81782818929068    7.28127682292341    1.77468311448336
C         6.42723583181882    5.66230846339649    1.75897186443296
H         7.08757903833150    4.98051149492815    2.27591638315504
C         5.94777201076510    2.41849818081224    1.66578015975925
C         7.03544500799821    2.57871564211800    0.81609185760923
H         7.12122833277266    3.46535357847808    0.20401018046247
C         8.00459308695235    1.59267173027116    0.76290073320747
H         8.85397195997844    1.71228262973298    0.10745443717325
C         7.88758563312002    0.45187935248001    1.54179296739864
H         8.64981223406977   -0.31072290943323    1.49436422032698
C         6.79346938771661    0.28337938105257    2.37666229410749
H         6.70111073687109   -0.60951073312688    2.97699177339131
C         5.82528261191148    1.26640791930426    2.43711655962790
H         4.95500614646278    1.15826740603337    3.08643422644192
C         4.31746063388608    2.14246393481076    6.43676574490203
C         5.04657763743554    2.37211809590112    7.60020553985065
H         5.41068422543580    3.36609834485859    7.82149669888290
C         5.31873570837115    1.32041946054480    8.45549647602304
H         5.87757317502345    1.49725847180159    9.36209200052049
C         4.88513304502091    0.03912812531426    8.14869517211294
H         5.10378031455251   -0.77704318367600    8.82012821957129
C         4.18630752000154   -0.19829715312773    6.97634350161997
H         3.86348208042986   -1.19864908032344    6.72809302145648
C         3.90517510966984    0.85228080217138    6.12180529312108
H         3.36403379511102    0.68145924351277    5.19503665033559
C         2.92311881631652    4.70818007587998    6.09571575491557
C         2.31199709139728    5.61726171702833    5.23270736466390
H         2.47565003526968    5.51437695154430    4.16016965902153
C         1.52664582635863    6.63609745977556    5.73351322586563
H         1.06025272760750    7.34357869397311    5.06419919636628
C         1.34052094980440    6.74494333123684    7.10328090725923
H         0.73136340936010    7.54197332524416    7.50130388419498
C         1.92780375323679    5.83003293906489    7.96114566174618
H         1.77121082806976    5.91281094512491    9.02594919030540
C         2.71920872390134    4.80844755496200    7.46402086765684
H         3.16325497777557    4.08968790547400    8.13648187401477
C         5.56049512744296    4.28908706815821    5.12211089788863
C         6.68036592218645    3.48529684987999    4.91420651812373
H         6.56966717748438    2.40965887503847    4.87613628034209
C         7.93045378395906    4.05704538858632    4.77534105399222
H         8.79376443405345    3.42713548816221    4.62007842489238
C         8.07375692014786    5.43487968710009    4.83918828691717
H         9.05155934506092    5.88066242212933    4.73848791126180
C         6.96156033215858    6.23743983339580    5.03139700508521
H         7.07018368777703    7.31044107476882    5.07916789632525
C         5.70608539395631    5.67098742838094    5.16725612016786
H         4.84384263479307    6.30426902983863    5.32077236428342
C        -0.46261499041667    2.89739096140048    3.13923831246799
C        -1.70548110912301    2.29367760808917    2.99741674834165
H        -1.89746460174279    1.32966621295006    3.44554460951334
C        -2.69235426202299    2.92405422670766    2.25927562356140
H        -3.65588692267053    2.45176393334893    2.14182111772689
C        -2.44726980021272    4.15361110204191    1.67001141585932
H        -3.22113429631467    4.63857428651709    1.09507934865964
C        -1.20786583308595    4.75846145570393    1.81104459791360
H        -1.01619539520868    5.71422649579309    1.34686831913066
C        -0.21746826668885    4.13014079606965    2.54056603819878
H         0.76682242282597    4.58004833287723    2.64330339965446
C         0.69176478050874    0.37613945334067    4.04996057548912
C        -0.31380401209669   -0.28341680476075    4.75185977513859
H        -0.99125097743141    0.27603621360885    5.38237386072900
C        -0.42904236759837   -1.65832527645205    4.65460813354577
H        -1.21137293639697   -2.16945628252911    5.19507657070251
C         0.45710897588667   -2.38019538633978    3.86987113850799
H         0.36127287505336   -3.45282774349339    3.79924797337533
C         1.46895586900969   -1.72857461261939    3.18286166106300
H         2.16394497108869   -2.29167747556282    2.57845499856708
C         1.58692959510088   -0.35390667389640    3.27287302279760
H         2.37363788989656    0.17054407381157    2.73624034432331
C         0.40794201626296    2.61446471173721    5.80533196615579
C         0.83992832213024    1.83807311777330    6.87776645488503
H         1.43515844775252    0.95424746906677    6.69926171363255
C         0.49079344049461    2.18222896967634    8.16993472576496
H         0.82525606402675    1.57054633251312    8.99445853002358
C        -0.29201285233581    3.30088450382997    8.40456859369153
H        -0.57167822144099    3.56279387313378    9.41339410708469
C        -0.72049968062681    4.07859904488169    7.34176821660859
H        -1.33517961883334    4.94776318622348    7.51999431925726
C        -0.36919040089195    3.74342798364231    6.04718641886243
H        -0.70802815923163    4.35326169065602    5.22203104468288

