80
CSD_code = NOCFEQ | q = 0 | S = 0 | Stoichiometry = C36H39ClNOPPd | MND = 4
Pd       10.38841088745554    7.27199165112435   15.38257123981615
Cl       12.08387550411031    6.86645035202846   13.82488401236182
P         8.99376969856096    6.44580127181079   13.86495706984870
N        11.60880767751078    8.00511383659338   16.85624062197519
O         5.48010610375407    9.17986365127204   17.09584675877422
C         8.97454235002501    8.11005689856156   16.54990496581857
C         7.59755513096149    8.19819419577497   16.39655665394696
H         7.10456154094047    7.59008595977741   15.64893742425683
C         6.83049184788216    9.04018084662678   17.19779923831723
C         7.44440333866727    9.81431103100410   18.18915696363381
H         6.82749528403412   10.45868824612027   18.79511730766683
C         8.80367512015123    9.73862146337421   18.37039277264217
H         9.28408326318735   10.33449896137811   19.13398909095309
C         9.57291508117933    8.90305323479859   17.55543287668739
C        10.98608969111196    8.71565723918940   17.71953636721194
H        11.49973630348366    9.11766001695686   18.59819333460495
C        12.95871370350060    7.57737756899876   17.08417009581166
H        13.27984727083801    7.85703067761172   18.09708284467323
H        13.61456333818843    8.07663802253550   16.36032586584810
C        13.09145054652584    6.05085862116445   16.86044075807542
H        13.19217159188281    5.91396994367208   15.77756675164611
C        14.36861539040533    5.49686261195942   17.48562641371168
H        15.22727954598345    6.12627459105657   17.24620325000800
C        14.21592994931814    5.04227392942861   18.95914111098284
C        13.61162848590212    3.74949588382029   18.36679412625765
H        13.78383097171515    2.81880007349539   18.91065311436962
C        12.13554199510101    3.91764153037836   18.02192976207343
H        11.53472323452386    3.84075652192969   18.93085949442904
H        11.84811400283270    3.08530649257257   17.37493442216532
C        11.83700981185769    5.25931012466923   17.31572068992344
H        11.21083684500859    5.06449255234161   16.42045940139367
H        11.23510216185570    5.87780490557153   17.99129935844840
C        14.42737420445576    4.01080190114956   17.09365161029530
H        15.42701719260272    3.58606110364053   17.11536027692316
H        13.95030245779103    3.74649331779221   16.15255051059360
C        15.58066843899754    4.78912664343250   19.60259448742629
H        16.23040261298799    4.19346580710556   18.96965871824926
H        16.07988833463701    5.73598361625490   19.80199753610373
H        15.45536398042572    4.26452864515105   20.54838133634470
C        13.39780041362812    5.84841116603067   19.96108654396363
H        13.25817114883047    5.25613546866093   20.86479875433366
H        13.93737194718108    6.75369095645946   20.23683556308858
H        12.42024982788769    6.13149436739381   19.59356634949964
C         4.80031885567585    8.46810505210278   16.09153998342649
H         3.75355108653955    8.75294878200444   16.18768804458833
H         5.16096719226993    8.73781235578821   15.09296020738692
H         4.89444611598814    7.38538659461811   16.22906730917408
C         9.61666342124161    5.64636911559269   12.35634981698294
C        10.21601641767767    4.39859594244052   12.50848689441081
H        10.27098153179323    3.95749668422612   13.49675501521209
C        10.75003285704036    3.74871691364782   11.41447409255521
H        11.22116425427176    2.78430460550479   11.53538700156492
C        10.69169380083218    4.34160859943244   10.16215528972281
H        11.11489416255182    3.83643139370086    9.30638288760180
C        10.10420427006563    5.58535956041138   10.00977507849687
H        10.06882082236212    6.05130055905336    9.03560278150182
C         9.56909849703407    6.24354682436401   11.10402945584882
H         9.12378214802836    7.22202226309689   10.98598759667265
C         7.81031296633543    5.18249149923501   14.43371671345757
C         6.98301583502755    4.48659367171584   13.55764067716803
H         7.03603998003249    4.68287367755641   12.49523352566776
C         6.11446739222591    3.52708301708010   14.04578228935593
H         5.46770281617584    2.99189808437594   13.36583481822943
C         6.07926866719793    3.24430898478575   15.40228781943216
H         5.40023467507365    2.49298458064575   15.77752792216590
C         6.92611429288805    3.91078102955404   16.27341353742407
H         6.91339344644174    3.67472780718962   17.32726654714367
C         7.79224520469780    4.87504799464684   15.79038371260245
H         8.47175906187990    5.40517113599774   16.45575680912014
C         8.03078919198203    7.85720593280573   13.22597026631459
C         6.73727984423701    7.79279104504928   12.72393457281674
H         6.21701751537118    6.84675838812245   12.67877947547044
C         6.10471454046302    8.95061665449028   12.30226273944215
H         5.09548087877008    8.90024225072486   11.91914457358540
C         6.75822798318389   10.16982832463398   12.37381972672916
H         6.25769317824838   11.06868542630269   12.04541652719217
C         8.04976912819967   10.23869401310560   12.87382157069525
H         8.55564698706915   11.19092215646438   12.93387105420458
C         8.68284927102456    9.08824433828157   13.30511065326934
H         9.69885348230152    9.13052884063545   13.71717716821125

