65
CSD_code = NOCKUO | q = 0 | S = 0 | Stoichiometry = C24H34Cl2N4Ni | MND = 6
Ni        4.24517032117176    5.09790115126373    4.97692517262423
Cl        3.19594043030011    3.60806714087863    5.99600477411062
N         3.26019643138052    6.74220366033002    5.88702804792708
N         2.57857141460566    5.75335731857431    3.38054434578398
C         1.83987161555143    6.46868259375394    5.67033262323000
H         1.20999707665487    7.24930099276089    6.12583248155983
H         1.61345079724894    5.51513373992140    6.15013481194608
C         1.49617399404177    6.35476381964254    4.16049699010241
H         0.60046376210577    5.73806407111538    4.09073528065587
H         1.22765139323556    7.33900262349620    3.75658775337820
C         3.29568632095770    6.68153565735136    2.50366946646410
H         2.97951948720014    7.70621327971902    2.71088534945915
H         3.05943647788484    6.48842039998676    1.45117762518635
C         4.82420843894220    6.58494535470760    2.66949132413999
H         5.15881088499691    5.60192404749652    2.33180398394585
H         5.29522875381694    7.35378101729725    2.03407491458408
C         3.59558146717473    8.08154819026671    5.38813481170628
H         3.68524715342651    8.78498165928402    6.22658703151281
H         2.77487833531404    8.44049267939621    4.76854992460238
C         2.19500918965274    4.50195620958828    2.69648550756072
H         1.78205739507585    3.83381870970793    3.45622659110381
H         3.11450143427821    4.04612612886541    2.31946169534490
C         1.21693598545076    4.67337838112311    1.56175172699442
C        -0.15638694669355    4.67827903590318    1.78212038138346
H        -0.54449332843698    4.49683109869482    2.77437657564131
C        -1.04326749764025    4.87918496127884    0.73919167624824
H        -2.10646929161476    4.87778690887159    0.93125060949863
C        -0.57226692224958    5.07078704833310   -0.54811160637641
H        -1.26418168981548    5.22864151739837   -1.36225357454262
C         0.79007903184928    5.03341002386046   -0.78870706858884
H         1.16549620849176    5.15405818666644   -1.79466211069010
C         1.67433166583720    4.83062418451161    0.25643274123570
H         2.73382098170616    4.76506604809209    0.04916071616755
N         5.23007504361333    6.74225799725677    4.06693218026851
N         5.91168780886019    5.75334712255856    6.57342334712947
C         6.65040313449163    6.46876259457438    4.28364565606744
H         7.28023704393083    7.24943720050926    3.82820132998645
H         6.87688598208786    5.51526498784280    3.80377715251954
C         6.99408606888016    6.35477776710653    5.79348861450261
H         7.88978293464494    5.73805805702589    5.86323414868266
H         7.26262377618162    7.33898847431108    6.19745738371635
C         5.19457004588719    6.68150186397388    7.45031871427788
H         5.51069869872981    7.70618935107871    7.24310337097213
H         5.43082578912561    6.48839268569085    8.50281372074569
C         3.66605750072400    6.58487616742935    7.28446728468268
H         3.33148305566343    5.60182881783798    7.62211365329621
H         3.19502165092037    7.35367760851411    7.91992205304122
C         4.89463853071975    8.08156784360347    4.56589200785731
H         4.80495990072025    8.78502166884217    3.72746214850847
H         5.71532688716275    8.44052009327109    5.18549155309176
C         6.29524904763435    4.50194489183888    7.25748248907015
H         6.70825132031262    3.83382968607528    6.49775029065126
H         5.37575110245187    4.04608341658726    7.63445889474590
C         7.27325974807780    4.67338326066552    8.39227037456453
C         8.64659225163272    4.67834172304653    8.17197237958665
H         9.03475553769027    4.49689878204326    7.17973937989690
C         9.53341067432370    4.87925432611662    9.21495350859589
H        10.59662317516435    4.87787000457268    9.02295796119596
C         9.06233576358099    5.07079905187274   10.50224110113397
H         9.75420290932608    5.22868841669955   11.31641636963921
C         7.69997937329349    5.03337208040477   10.74276526353526
H         7.32450079204420    5.15403386941890   11.74869446188564
C         6.81578921733500    4.83058795777626    9.69757174608137
H         5.75629010607171    4.76500019930301    9.90478431581738
Cl        5.29409435681708    3.60757419201573    3.95827657035665

