73
CSD_code = NOCKOI | q = 1 | S = 0 | Stoichiometry = C26H39N4NiO3(1+) | MND = 6
Ni        1.16762155598757    5.22327782626796    5.05988730113592
O         0.20258589786975    6.62759409052271    4.30483166680306
O        -1.59166369361836    6.83320712039196    5.60597222190829
O        -0.66481376928689    4.49015242772335    6.03942413494291
H        -1.29708761937648    3.96430533329505    5.54175489978003
H        -1.10184847286424    5.40556415898583    6.07635041745153
N         2.99186982475972    5.87727288576663    4.06149481503185
N         2.12429823438159    6.41815143816348    6.78261616045703
N         2.32231225017877    3.88006911476831    5.73525214200371
N         1.22048162794614    3.92426002650651    3.10940103950955
C         3.23900733177791    7.17839326606052    4.67877249307435
H         2.41495944860976    7.83868049504020    4.40389051442737
H         4.17904105362711    7.61742604990552    4.31480721639156
C         3.31202740111442    7.07092620485143    6.21223474266196
H         4.21164250864321    6.51820454582749    6.48509107836527
H         3.42836105445820    8.07875265700479    6.61842706705725
C         2.44122573310180    5.35081236214916    7.74768906247325
H         1.86164292957233    5.49106568445867    8.65968266740387
H         3.49389694077220    5.39906326353088    8.04375654153120
C         2.08793987914017    3.95771784952371    7.18604235694769
H         2.65738190407303    3.18143786182175    7.71364063243449
H         1.02501555686526    3.77749763595980    7.35877126046475
C         1.76125428746884    2.64516853970761    5.16949330111007
H         0.72811105529940    2.55512504020282    5.51055473859382
H         2.31086840137502    1.76624600104900    5.53340402153070
C         1.78790303565362    2.66879156678192    3.63339037543487
H         2.81717450735609    2.55015598601663    3.29008469816075
H         1.22066746722720    1.80314500597738    3.27597702648776
C         2.05475511972592    4.62316859834129    2.12309359526269
H         1.46321925191458    4.84798893130593    1.23347460298514
H         2.88244002231379    3.98656354276841    1.79808831292498
C         2.61377823280716    5.96500526707571    2.65379351745844
H         3.46428949643617    6.26497663769277    2.02659969058700
H         1.83490739471588    6.72361539918052    2.57564046600003
C         4.09276212503987    4.93230528434144    4.28430207745646
H         5.02421731085082    5.47153561170192    4.49132222548990
H         4.25819938141520    4.36058873894058    3.37297651027626
C         3.77399846008464    3.97816427374538    5.44951693509736
H         4.17031496834834    2.98097891031440    5.23301659641771
H         4.27697688720831    4.32527628695839    6.34987063024474
C         1.16103416651241    7.40895806610275    7.32423032427025
H         0.24243010431513    6.87310999029353    7.57309155871890
H         0.93386618326329    8.10910300378537    6.51792549440883
C         1.64545975650225    8.17786201423207    8.52962599027975
C         2.31306286444417    9.38972201194137    8.37978765006315
H         2.44187041774531    9.81974378709683    7.39557974280760
C         2.78124295939272   10.08343408346106    9.48217588518671
H         3.29663107814421   11.02186595470750    9.34511874993936
C         2.57703757251501    9.58269830672383   10.75608394844282
H         2.94095531200671   10.12296827131494   11.61607098246733
C         1.87724378464834    8.40006296900083   10.92164718096462
H         1.68339299043188    8.01999455237017   11.91304415190784
C         1.41170245422116    7.70739567231794    9.81789681690469
H         0.83033790594578    6.80864728372187    9.97031307643538
C        -0.16478983255689    3.76228897739476    2.65057449644558
H        -0.59444618274395    4.76420855449233    2.55280378487941
H        -0.71788830569953    3.24595385124866    3.44287921919712
C        -0.41064393202843    3.01267997026688    1.35372266905379
C        -1.70669241487599    3.05701821406836    0.84542465542437
H        -2.46134684346724    3.62378140479418    1.37211981126300
C        -2.03979698003897    2.38977041898018   -0.31725002944361
H        -3.05031336910984    2.43767966696718   -0.69263157436859
C        -1.07724434158179    1.66342574384588   -0.99927051815014
H        -1.33194655473901    1.14162686711726   -1.90829454080382
C         0.21254034270550    1.61387267098610   -0.50570807295777
H         0.97155469308889    1.05192590637293   -1.02856461367520
C         0.54508722523357    2.28150652849837    0.66302835532923
H         1.56276212425462    2.21846357354864    1.01467634059402
C        -0.87451375776738    7.19803578507709    4.67282780199153
C        -1.25889554351051    8.42003420692182    3.85546162756962
H        -2.24193364648317    8.25474199894928    3.42163163458691
H        -0.53242152338112    8.61035481635642    3.07141084901486
H        -1.32827369036228    9.27703295641601    4.52107679748188

