60
CSD_code = NOCLID | q = 1 | S = 0 | Stoichiometry = C20H33N4NiO2(1+) | MND = 6
Ni        4.94030938587691    5.14736218073300    3.43515747405955
C         2.50815977783062    3.99046886055595    3.62746818050700
H         2.84741461604174    3.42526510309447    2.75587107831895
H         1.41018452354813    3.97637319410438    3.64907097644720
C         3.04681875145528    3.31358607589479    4.90303385491812
H         2.60442106918092    3.78886678582442    5.78049755888330
H         2.71009963109275    2.27085457426821    4.89633278240469
C         5.05533292670429    3.90870153913065    6.22930509224189
H         5.82472975901673    3.23516952000084    6.61325394356316
H         4.27596835730543    3.96096017315332    6.99634485129305
C         5.71694902841978    5.29574583797925    6.03278898670282
H         5.82085927790994    5.79105664665335    7.00687836104966
H         6.71231732890278    5.15064899593903    5.60740268667320
C         5.68942895535353    7.37175641910858    4.74579704620884
H         6.68712152231374    7.08084197768769    4.40744636639899
H         5.79374319425140    8.02197582664179    5.62477609969341
C         4.98466098643089    8.15341418590039    3.61967748420194
H         4.04114169579891    8.55579477725007    3.99199460681524
H         5.61163722056155    9.01103603497713    3.35803009720032
C         3.36577050922376    7.31410642424800    1.94587097045520
H         3.35662476850858    7.49337401549666    0.87081698008968
H         2.79351684754707    8.13040698029009    2.39747727554640
C         2.65780357330429    5.95535821847118    2.18517522456510
H         1.57209160437731    6.09238234000701    2.09839893740861
H         2.98303754311665    5.25145723408174    1.41608988421565
C         3.61761127563061    6.45515958691544    5.64603513045555
H         3.59476718691983    7.48923808404868    6.00321869780255
H         3.43706031443527    5.82067425370489    6.51144978929056
C         2.51938009246475    6.22888132243931    4.59470110572260
H         1.63669233064706    5.77687373073923    5.05748220603508
H         2.20218140761155    7.18390589103843    4.18060611749280
C         5.12352173554059    2.11034123771962    4.59364515479122
H         6.20422121057533    2.22785716136479    4.53762158173534
H         4.76371731341364    1.81239404044812    3.61020295614545
H         4.88697473880293    1.31723949362322    5.31405606621786
C         5.76192772507953    7.48641720455308    1.39038583742110
H         5.57110397867065    6.72906712662206    0.62593291405766
H         6.73506058680536    7.27499705442016    1.84227082702743
C         5.78646385999743    8.85837503653846    0.76217186539838
C         6.62298376117867    9.85010208292083    1.26554821882146
H         7.30544989179238    9.62238217554971    2.07345230447268
C         6.62602118954609   11.12104548622857    0.71749641900777
H         7.28281429009215   11.87697495272623    1.12041422943986
C         5.79878946172724   11.41789454546583   -0.35156399986419
H         5.80049458521620   12.40797554777467   -0.78019575959444
C         4.98789407502317   10.43057065197123   -0.88423843152652
H         4.36126870233722   10.64595016369925   -1.73628224547647
C         4.98557797808763    9.16103943919966   -0.33399372179960
H         4.37348701955279    8.39371062624412   -0.78721771124717
C         6.44606073315110    4.16060439438219    2.07806553356642
C         7.43571187833122    3.50069690191205    1.17574265064524
H         6.92727190137371    2.83515164094498    0.48464907324059
H         8.16842906988265    2.95436968554176    1.76440649029630
H         7.96715753825210    4.26590478094682    0.61186333999287
O         6.79872193583881    4.79308416363044    3.11293361246445
O         5.20449669719529    4.12797356035637    1.84795262959248
N         3.00242752715874    5.36989766105508    3.49053511125093
N         4.51321740570608    3.38531204453176    4.96833742759530
N         4.95796832404486    6.14392191233726    5.09931152859702
N         4.74272942384448    7.30345243691439    2.44794625107001

