65
CSD_code = NOCNEY | q = 1 | S = 0 | Stoichiometry = C30H26N7SZn(1+) | MND = 4
Zn        1.10509375429152    5.07435324533226    6.86960332372537
S         3.37495587799314    4.92134827966359    6.78309016592644
N         0.35443503756647    4.37180142882862    5.00404136421397
N         0.70627280690791    7.07737921144600    7.42301115393867
N         0.25995492292662    3.93498024453517    8.36948192132566
N        -1.36467912746424    5.47808810288263    6.80932010163443
N        -1.23031930835495    3.67299638786073    3.62950295795394
H        -2.14446550341059    3.42469357163119    3.28685047024310
N        -0.25003706233517    8.98520820395303    6.84191061692421
H        -0.91359641794140    9.62777068777392    6.44027185004539
N        -1.29170643640452    3.48425337959204    9.87515193034895
H        -2.15007480870400    3.54656328827190   10.39890658728447
C        -0.93140671801884    4.18299599848597    4.84461500869741
C         0.96135505955389    3.95418728619715    3.83690208735278
C         2.30098034795281    3.91911201051533    3.46454444428613
H         3.07564101652035    4.23920395661325    4.14176494337492
C         2.59000984124928    3.44274838585921    2.20328492498912
H         3.61817022146497    3.40036671895007    1.88027448329469
C         1.59011699201360    3.00921339402962    1.32846068788344
H         1.86889476002109    2.64592202041783    0.35182471093017
C         0.25658681706784    3.02971728380296    1.68437819145842
H        -0.51581472124108    2.68908763540539    1.01331571720447
C        -0.04014338236570    3.50744413841398    2.95084624777479
C        -1.92793806203432    4.48386523150526    5.91365491003045
H        -2.88735481030723    4.80194169462189    5.47528983007449
H        -2.10469095132670    3.56482672664805    6.48195914479633
C        -0.33561944676621    7.63653528597361    6.85917571539711
C         1.53931319493266    8.10453327518289    7.81303305540159
C         2.75761091326825    8.08147093231181    8.48127999840251
H         3.19939633928158    7.14937953933102    8.79326116749766
C         3.36870971826904    9.29497068474133    8.71242192428943
H         4.32040581702555    9.31841149932055    9.21914685872092
C         2.79092707571128   10.50101229221319    8.30794552171116
H         3.31242798294567   11.42400516997446    8.50705032873523
C         1.56812572089602   10.54322062600144    7.66933725798324
H         1.11705349008486   11.47514880744785    7.36797435293423
C         0.94960710023342    9.32617781405251    7.43365114268534
C        -1.47387111684195    6.83883223355633    6.31475923812378
H        -2.43616180590454    7.31011826251514    6.57593370135281
H        -1.39591762900014    6.81631482184297    5.22273494976405
C        -0.93626037890480    4.23614967893947    8.80953676771106
C         0.74447797863760    2.93751613635651    9.18504713879780
C         1.96159044434848    2.26639948799232    9.16857391687750
H         2.71237570404922    2.50826033005331    8.43299271106766
C         2.15650578163276    1.30410618390771   10.13686750681525
H         3.08853182774930    0.76195266157325   10.16333964114686
C         1.17919886665314    1.01002194823670   11.09258535696228
H         1.38091127595769    0.24846268780999   11.82945161597948
C        -0.03363223367318    1.66929403610723   11.12214443973125
H        -0.78389243347541    1.44335204254537   11.86299244195587
C        -0.23538259114003    2.63951798656384   10.15303954208118
C        -1.77037267856034    5.31150623062029    8.19457378762859
H        -2.84286878383603    5.08312721782259    8.29814698131913
H        -1.56869667996555    6.24526695984514    8.72864442136905
C         3.77460422175558    6.46629387679605    6.03625681621306
C         4.99546683531583    7.05550977313732    6.35240540913388
H         5.66549851823038    6.54029806872705    7.02288393367559
C         5.33226850416998    8.28436217967971    5.82064638052001
H         6.27818500427806    8.73610697199743    6.07846342888723
C         4.46106466555158    8.94049812480875    4.96628224202458
H         4.71996188731492    9.90600563792101    4.55989988612843
C         3.25974987207502    8.34258863482857    4.62640538578815
H         2.58354601782448    8.83693415330700    3.94281458399935
C         2.91939462466715    7.10889941121718    5.14877024069233
H         1.98482624956669    6.63796982150342    4.86307243473955

