55
CSD_code = NOCPUT | q = 0 | S = 0 | Stoichiometry = C21H27ClN5Rh | MND = 8
Rh       -0.78601830281581    4.39509888712723    5.65936145977079
Cl        1.02255541800212    5.13844438895489    6.90251692513935
N        -1.51443603292151    3.00659721751943    7.84558032229631
N        -0.74029781512984    2.87401855720752    6.87601278031805
N         0.09060093735103    1.89393112277261    6.66073673873379
N         1.77928350076896    1.32691185003250    5.04182702990190
N         0.53524419921202    3.12188455782868    4.71401177865594
C        -1.46199645613638    6.47112151946845    5.14885977946076
C        -1.61620835137424    5.67337240366912    4.00460779518785
C        -2.53561355549419    4.59334769663488    4.33064398704444
C        -3.01807815835760    4.81123916105235    5.65255703381766
C        -2.26397792844985    5.88441406122234    6.21078951063104
C        -0.71191959886366    7.75777157949809    5.27968002078581
H        -1.40595192078180    8.55963746436157    5.53506466753134
H        -0.20621553134540    8.01288054537276    4.35216584892336
H         0.03363099755102    7.68683668819537    6.07132001407724
C        -1.07788674005661    5.95122078816133    2.63462214508287
H        -1.79028963716417    6.56537091760599    2.07973085346552
H        -0.92467480068638    5.02847103293735    2.07918232401993
H        -0.13148780559915    6.48484071550896    2.68604396083683
C        -3.10576861635456    3.63799057263975    3.32782113914656
H        -3.90780464573666    4.12610267461806    2.77017519812507
H        -3.51278244340622    2.75485449366493    3.81501258623029
H        -2.34705323408763    3.31626704878895    2.61744278455246
C        -4.10868802295239    4.07617099356432    6.36041832346650
H        -4.88810592239442    4.77896961773436    6.65527624641534
H        -3.72171362854965    3.59827069976207    7.26100751461345
H        -4.54905259713754    3.31467307600911    5.72237290324653
C        -2.50572501101520    6.51296464851183    7.54638694555591
H        -3.30202906724742    7.25648504972480    7.46817563742564
H        -1.60518337949156    7.00507690307202    7.90518777399096
H        -2.80033411748384    5.75840775322901    8.27117737504202
C         1.42404740677442    3.02561508928750    3.68575590249090
H         1.45285937796226    3.74704833069842    2.89366322117366
C         2.19319473187802    1.91977510004555    3.87185660078553
H         2.98679119434112    1.50731378382470    3.28447159810600
C         0.78236031882080    2.09004590398455    5.52941963378042
C         2.32408349025407    0.15156532562030    5.65792444399429
H         1.87085580925389    0.04437346026642    6.64094440469511
H         3.40532617830119    0.24983050843557    5.76548795090707
H         2.10413730802023   -0.73439764497905    5.05759540877698
C        -1.64627396674915    2.15858351508425    8.92703084910104
C        -1.02144529895122    0.91742914999682    9.08284761267705
H        -0.35888142827720    0.55462726900050    8.31455764161733
C        -1.25691557047384    0.16324449075164   10.21493455133101
H        -0.76758245640820   -0.79531417685601   10.32220588005582
C        -2.10755568020681    0.60743128705271   11.22024650856665
C        -2.72827768500629    1.84291003427541   11.06188131475592
H        -3.39247161089878    2.20688993081675   11.83331638198968
C        -2.50774520704058    2.60543088893543    9.93675507095583
H        -2.98700397475257    3.56547626065948    9.82001495701483
C        -2.33023921358947   -0.21101224843616   12.45511729008098
H        -3.30838066543598   -0.00752407321399   12.88515827161051
H        -1.57565527667276    0.03321656424766   13.20413077820148
H        -2.25344951297731   -1.27390343594072   12.23641432385681

