139
CSD_code = NOCPEB | q = 0 | S = 0 | Stoichiometry = C52H79Cl2N4PRu | MND = 5
C         2.10773470604413    2.61272163958135    3.77626263754734
H         1.14174880345233    3.06396122937731    3.51226490272178
C         2.05854800722284    1.19227565861508    3.62396269316194
C         0.91543520230843    0.62600485683376    3.02694801269741
H         0.11774160993865    1.27819224273348    2.70035392418169
C         0.80580067574461   -0.73396895240329    2.83311912051845
H        -0.07836118070077   -1.14118842030088    2.36307069042084
C         1.82393670776347   -1.58063988684986    3.24312982649696
H         1.73688471224210   -2.64724949135370    3.09180655723907
C         2.95347747955033   -1.04800771226313    3.84656621202560
H         3.74894031484439   -1.70381776158963    4.17056737697282
C         3.07482815278079    0.31248535470340    4.03410032981716
H         3.95949801670322    0.71394431567563    4.49998444055974
C         2.85992818910604    4.41128321770359    5.99915399455345
C         1.44880498377698    4.54904371086772    7.85677225363528
H         1.53900543415571    3.87359238938118    8.71456643983266
H         0.41110924427238    4.88788105660391    7.79770841667388
C         2.44085704829468    5.70578938545101    7.89816334830397
H         1.94911130587607    6.68071681439527    7.83869392439993
H         3.07685168637943    5.69876192766545    8.78974638709086
C         4.39267352035237    6.30774281035797    6.52990954739284
C         4.24606123938768    7.60872376175022    6.04079106480610
C         5.34332541073254    8.45176346209213    6.01837042496094
H         5.18696895657578    9.45133872623607    5.64637711151259
C         6.61128934998878    8.04451042471554    6.45498681536622
C         6.71198196080952    6.74733710829741    6.97210169214287
H         7.64597559850965    6.38583318206742    7.36984490175130
C         5.62776868635312    5.89017678847474    7.03727034474616
C         5.79013895170283    4.54149243208694    7.66648783302786
H         5.80260415121583    3.76563325138221    6.89989427045947
H         4.97022359435273    4.31797382500482    8.34705018740200
H         6.72561087636173    4.48583656426599    8.21765973415092
C         7.53907784214833   10.29226319872715    6.12248025095530
H         6.92953911518007   10.44599575097251    5.22550344719443
H         8.52613694179771   10.71183421916405    5.91483678668500
C         6.91499336411668   11.04170695054659    7.30235841392229
H         7.55135620457646   10.97419299581679    8.18060662712529
H         5.94540932674136   10.61929579146993    7.55230186998755
H         6.78513523222130   12.09069317103635    7.04751975099289
C         9.02835255222867    8.41377269668665    6.69799712425055
H         9.74786038655676    8.99928756961623    6.11631837998501
H         9.13115342117350    7.37386387600624    6.37772574561627
C         9.37283180260078    8.53378160023676    8.18529364965252
H         8.62044292186773    8.03576752586973    8.79147770457956
H         9.42091252152970    9.57752387091696    8.48496041979319
H        10.33971367276042    8.07620647875130    8.38004974072923
C         2.92160790048236    8.11159940241710    5.55208477687041
H         2.28800564608760    8.40725125365466    6.38963839218627
H         2.39719668323596    7.34502378819808    4.98291681432608
H         3.05552413085787    8.98219476975150    4.91383095144751
C         1.15446557761107    2.64148999325838    6.32275554539365
C        -0.11903899192279    2.66602059819973    5.74755594768066
C        -0.79171975645727    1.47592678473136    5.54270542235258
H        -1.76237431308552    1.53519248177507    5.07909893295871
C        -0.24684034281612    0.23542400058608    5.90473244867470
C         1.00732785234308    0.25557289874282    6.53230503026444
H         1.46703683179052   -0.65828236122584    6.86828319639172
C         1.70477271692952    1.42732554730505    6.74710506502579
C         3.03954556870847    1.39990180861186    7.42330820921723
H         3.02222607196751    1.97508434668191    8.34884215485518
H         3.79540567448089    1.83631791740790    6.77139909714338
H         3.33285640033450    0.38025338253183    7.65651415947488
C        -0.32171080928308   -2.21595506542709    5.99700488947861
H         0.74677836030661   -2.18912434787596    5.76877131810411
H        -0.76734441181180   -2.97882998229489    5.35206083025687
C        -0.53539660634042   -2.61228137952838    7.46045779915635
H        -1.59045482094402   -2.77456518687423    7.66503584399627
H        -0.17399500626603   -1.82952184619112    8.12199803575343
H         0.00211657916319   -3.53195089152813    7.67797682681565
C        -2.26041414507444   -0.94475292650890    5.15009757127075
H        -2.47643845804309   -1.94571440459452    4.76861453808018
H        -2.33743255518777   -0.25477345953935    4.30380351109232
C        -3.30293660397423   -0.58010655806637    6.21047374945746
H        -3.07788683719156    0.38881009144501    6.64772851679369
H        -3.31377169560987   -1.31872619868154    7.00733513370178
H        -4.29221840100502   -0.54174002812300    5.76098474206063
C        -0.75309233291618    3.96447417771568    5.34488943741644
H        -0.00646859005014    4.66035291852670    4.96550301658395
H        -1.25149987989032    4.42789911046704    6.19768296123608
H        -1.50136472644994    3.80288096504194    4.57256585873437
C         5.48536514701709    5.40019681456857    1.85779867769181
H         6.22786917944750    5.24590891291232    1.06506121053871
C         6.19405839449051    5.46332905126477    3.21410035209630
H         5.43469406758477    5.63484445119585    4.00383633966036
H         6.69548583027427    4.51394697361272    3.42928016814193
C         7.21551899987753    6.59361276988696    3.24139856317899
H         7.68283606587859    6.64454629526782    4.22660523345473
H         7.99841788964645    6.38216161747552    2.50683308288771
C         6.55348735073812    7.92729588733758    2.91481580610433
H         5.83793190582240    8.16528214945038    3.70254644088765
H         7.30646964389565    8.71896486766888    2.88963632578091
C         5.81750311878129    7.85685095296243    1.58251222652252
H         6.53485345274608    7.68108221661454    0.77501699484064
H         5.31923762601754    8.80829083636462    1.38290030758062
C         4.78431121926967    6.73219187574001    1.59293077942210
H         4.27622744236486    6.71908569260086    0.62744309966124
H         4.03585274542001    6.92271266695518    2.36663895470711
C         3.25308203103892    4.18757024076498    0.45790872246450
H         2.82941460973407    5.17848642858673    0.67487266596713
C         3.95499264533387    4.23730242354339   -0.89656682939302
H         4.30385235162209    3.23971921822208   -1.16916174619200
H         4.81985995805451    4.90327552927516   -0.86463945014307
C         2.97163070249088    4.72017294439906   -1.96179348191163
H         2.64095953999378    5.73275490939957   -1.71822211304904
H         3.46767936626837    4.75500989918209   -2.93500227292239
C         1.75957781191713    3.79555536529294   -2.02704538560994
H         1.05396075064325    4.16087835525604   -2.77642121770678
H         2.08291956822562    2.79690017026943   -2.33208128606234
C         1.07740481416889    3.71076259911252   -0.66453208923413
H         0.22849772931492    3.02543172901128   -0.71632024290095
H         0.69723607364584    4.69564915582855   -0.38484364341916
C         2.06300940737512    3.23177609609537    0.39872172536309
H         1.57497237600266    3.21286555098385    1.37428442441696
H         2.38312872758566    2.21652088906876    0.16243523959669
C         5.54367250042720    2.49739643796011    1.57276669655144
H         5.95629344543839    2.28335234214763    2.56937878644874
C         6.73018005668634    2.69880414843457    0.63141435364551
H         7.33187032546325    3.55807855466078    0.93183939279918
H         6.39159552059622    2.85914314396231   -0.39347773819352
C         7.62295049169937    1.45692430168895    0.68224335742424
H         8.47123450696401    1.59010475137293    0.00602884928635
H         8.01578131296954    1.34412238879687    1.69526403706655
C         6.84968016811375    0.19765652078138    0.30419488686507
H         7.50561852101032   -0.67289737211754    0.37203359844354
H         6.50838371766923    0.27764438096341   -0.73141432354016
C         5.64452176761924    0.02231723644470    1.22279257632841
H         5.98160233114237   -0.11575068045363    2.25161381219779
H         5.07409587432880   -0.86335165667850    0.93388550662875
C         4.75473902704730    1.25854166428823    1.14846376136623
H         4.40337875477145    1.37359462024071    0.12082525127298
H         3.88776106211859    1.13510279819552    1.80145642870020
Cl        5.25504794431775    2.62761841591557    4.91027589222907
Cl        1.94046838325871    5.60033916667080    3.36208691904745
N         3.24879918181169    5.47857976504814    6.70080681135379
N         1.82321097572363    3.85451802300838    6.62817384213117
N         7.70350169772713    8.87569681808123    6.35935627306739
N        -0.90457923188097   -0.94156065391922    5.64871838792820
P         4.36408701019301    3.91028290960089    1.92921007485416
Ru        3.45562070035938    3.93470523075828    4.11183893137450

