58
CSD_code = NOCQEE | q = 0 | S = 0 | Stoichiometry = C24H29ClIrN3 | MND = 8
Ir       -0.50655881289892   15.63474357021798   10.44312252010407
Cl       -2.50982772528948   15.15346364388522   11.56266966747282
N        -1.60286320919051   16.85797577125239    9.23707648303536
N        -1.99555598945073   15.94695801961776    8.38907808705023
N        -1.39364124525730   14.86390495775430    8.79612342195103
C        -2.08230563040691   18.14685255451390    9.16384932261967
C        -2.68400744635226   18.64018569057477    8.00312812899286
H        -2.79192736551540   17.98501510994347    7.15332098532546
C        -3.12573427364914   19.94561908177046    7.96177697978182
H        -3.58834846858676   20.32015912284673    7.05962528507991
C        -2.98681189672980   20.79079975375708    9.05834183087797
C        -2.39719917977320   20.28705540954806   10.21313140790839
H        -2.29432021447490   20.92602147565183   11.07870399746322
C        -1.94738156844867   18.98491493969133   10.27117196268902
H        -1.51597680524023   18.58341468439590   11.17507196926836
C        -3.48974125234373   22.20113219317489    9.00709425994763
H        -3.44560064188726   22.59314070328173    7.99352439181066
H        -2.90777143133390   22.84575805549023    9.66193028893794
H        -4.52882118518995   22.23728518751749    9.33663844960208
C        -1.62080207407219   13.64820953025441    8.19162932736724
C        -2.23682541347633   13.55525572328544    6.93986250255434
H        -2.55586692226254   14.46041020532577    6.44813568125086
C        -2.42849762275902   12.31938100959298    6.36194207100176
H        -2.90580253293403   12.25357926045525    5.39450293330683
C        -2.02235708709930   11.15021474308511    7.00056429746417
C        -1.41882671329319   11.25250602997046    8.24813857574915
H        -1.10920228995007   10.35519682069517    8.76495437693882
C        -1.21595692947061   12.48199585990415    8.84033793803425
H        -0.77455948154801   12.56190893664314    9.82168469622918
C        -2.23673726718533    9.81981838341125    6.34581432469610
H        -3.27876544766597    9.70338799286480    6.05208404657269
H        -1.97065357501271    9.00743492764424    7.01718723759835
H        -1.62742727932323    9.73806421378245    5.44558579975436
C         1.65221814887638   16.08692047836461   10.20635333800788
C         1.18843125423014   16.82588356077734   11.35400636249831
C         0.72506763410558   15.89431682805884   12.31374460181805
C         0.91925175641844   14.56654687496030   11.78188921632957
C         1.54199948540725   14.69034603010821   10.50883611462153
C         2.40740761867545   16.66817862782435    9.05419129678495
H         2.34116099738705   16.02410419801271    8.18032257149799
H         3.46153072379762   16.77680077606628    9.31801851630385
H         2.02223016192976   17.65076181900315    8.79051712080310
C         1.35857528855290   18.30128176072301   11.52752693118578
H         1.06194464836982   18.84193974605153   10.63047753539357
H         2.40927665083683   18.52335968575480   11.72390419078231
H         0.77015222778007   18.67276707932114   12.36244325365158
C         0.24859393971704   16.16742626305866   13.70322372623727
H         0.16780438164620   17.23450873258140   13.89244015525981
H         0.94427287682711   15.73662779637397   14.42457435404300
H        -0.72940440476235   15.71519472025916   13.86400442525716
C         0.70949319009256   13.31855620313901   12.57881905487804
H        -0.28276091496941   13.31742657253092   13.02636794908233
H         1.44467815642762   13.26258211898378   13.38351612720044
H         0.80929571600152   12.42957433683743   11.96110426509263
C         2.10820482829193   13.59504064802125    9.66326792026933
H         1.80170362129023   12.61700610077420   10.02322004065069
H         3.19798227079657   13.64520641814779    9.69081588554806
H         1.79256472034027   13.69007906246599    8.62561179837255

