27
CSD_code = NOCRON | q = 0 | S = 0 | Stoichiometry = C10H14AuNO | MND = 4
Au        4.14582624737831    0.34918870292838    3.32024260055438
C         3.22717654127851    2.10362405061846    2.99135003867209
H         3.44694935095422    2.82949504762541    3.76557348826529
H         2.15951606647722    1.91753437945858    2.98910102890141
H         3.50223117876513    2.53185429295341    2.03444596499138
C         5.87517991064484    1.35085114808112    3.19260342137666
H         6.48424236760211    0.95064822181264    2.38858786348660
H         6.43522695833784    1.24878953977434    4.11662963210318
H         5.75998617338509    2.41122373769836    3.00724616096926
N         5.03772838829271   -1.53584153031396    3.67173850895223
O         2.28749488150081   -0.49961346705454    3.42598881078127
C         1.99263425617151   -1.72506806501929    3.67513690537143
C         2.93657285022672   -2.76892531238577    3.90706404074025
C         4.34350677657909   -2.60254802067973    3.87952123434159
H         4.90001409861491   -3.52813145593950    4.05858220924269
C         2.45924909681419   -4.07291109988697    4.17289942027807
H         3.18674038854104   -4.85423053307489    4.34856888326537
C         1.12556519841530   -4.36567417532663    4.21246104006303
H         0.78820999146213   -5.36980032739353    4.41818743054374
C         0.19609128919942   -3.34447466388590    3.98005478637451
H        -0.86093632251312   -3.56678962297649    4.00726342462386
C         0.61637078616418   -2.07119286888646    3.72050843643769
H        -0.08839933879379   -1.27359257974140    3.54025202383249
C         6.47297744556418   -1.66071001624031    3.67873445576426
H         6.79031527777479   -2.68549803716241    3.88960871017815
H         6.89373711818629   -0.99624560747403    4.43286121387276
H         6.86779302297589   -1.36036173750912    2.70778826601636

