24
CSD_code = NOCSOO | q = 0 | S = 0 | Stoichiometry = C10H7ClO5W | MND = 9
W         1.06987304279433    8.41731845486074    1.64781353082089
Cl       -0.96072628332628    7.01664528983439    1.33914658488785
C         1.82183964180317   10.33810708737851    0.68248718442447
C         2.59546691562052    9.24099307032788    0.15578898762712
H         3.67569647542501    9.17875947511224    0.18239997033995
C         1.72232185669160    8.43459615855950   -0.60783449166514
H         2.01468010119244    7.61060766344290   -1.24603575593690
C         0.42878361433568    9.01604584542829   -0.56120942208539
H        -0.43101531838795    8.67511995928950   -1.12345773842217
C         0.47824617956767   10.17953639177271    0.23359388816657
H        -0.30803168949314   10.91291278246948    0.35802686898681
C         2.33984665280380   11.49491725735672    1.43777752354295
C         2.32747456310887    8.59385832616616    3.17033292636793
C         1.42723510253381    6.51176624068792    2.11587952620903
C        -0.03511657299371    8.91548297313164    3.22048063111769
C         4.21801761168024   12.30673335866433    2.60306423540054
H         3.87889570057545   13.28534569581437    2.25884425455397
H         5.29150219989898   12.19853831833299    2.46781129500348
H         3.95689143898056   12.18556944974558    3.65609278413171
O         3.60578600687404   11.27691232535310    1.83677770132564
O         1.72351334829107   12.50725155511634    1.65777708038308
O         2.99871049691886    8.68831994212368    4.09674482862135
O         1.60051206171165    5.40996467517548    2.36205029823435
O        -0.64650314660666    9.24779770385513    4.12654730796414

