92
CSD_code = NOCXAF | q = 0 | S = 0 | Stoichiometry = C36H47Cl2N3O3Ru | MND = 5
Ru        5.90212370944014    6.82926571743018    8.66538003998259
Cl        4.33199760585322    6.65807264841966    7.00946858067691
N         7.95095774399164    6.07969942320190    6.80517948578282
C         7.39772605030575    7.14907498715619    7.39036300480150
O         4.15609743295608    6.46296479535320   10.07043975332112
N         7.99772905239634    8.23737165747505    6.91862464739663
C         9.00657093887463    6.41044007919610    5.85975264714436
H         8.75121791357045    6.04606076456708    4.85956795446193
H         9.95100167729274    5.94800560451972    6.16417837327135
Cl        7.24502188937569    6.16778950283455   10.40575949526060
O         3.97787862743634   12.92025573386584   10.84935670613597
C         9.04163482875054    7.93963500058951    5.94138247103938
H        10.00607726139340    8.32236109086572    6.28912289607061
H         8.81269536211386    8.41861269646282    4.98476242137936
N         2.45838794623719   11.46118031038129   11.77230847948580
H         1.63600990891045   11.47383279393182   12.35954870122079
O         2.24849685309663   13.62490851707293   12.12510625897857
C         7.55275965792800    4.74248553605152    7.08385273153930
C         8.20730065452041    4.02498329480372    8.09259470864969
C         7.75829753586029    2.74587657308960    8.39195051072157
H         8.24470547097251    2.19663890858209    9.18540151767229
C         6.70948245646083    2.16216319149666    7.69696004701820
C         6.14227988452835    2.85843812038659    6.63891020886949
H         5.36107162555009    2.39391671773829    6.05408523694728
C         6.55770310605455    4.13943031118909    6.30375278051681
C         7.72394518555012    9.57971265497957    7.28956690913886
C         6.76036789911978   10.30271809035299    6.58570249613353
C         6.46618512133754   11.59128045842728    7.00569670714272
H         5.70409623625754   12.15276624785747    6.48489440803632
C         7.09856969959237   12.16127037109475    8.10246545102834
C         8.06544165303709   11.42347696684480    8.77296655092297
H         8.55442911690196   11.85259193067233    9.63557516118671
C         8.38711165842571   10.13081741820970    8.38737334396520
C         9.41966644566737    4.56890667032966    8.78586070904832
H         9.43261188513717    4.25725150682070    9.82656907715745
H         9.44511586170728    5.65454600949046    8.75961267763566
H        10.31675248110144    4.17969353296772    8.29965754117858
C         6.20543566262603    0.79995133878744    8.06518615205709
H         5.30448302211858    0.88955988521803    8.67278474761283
H         6.94813671577382    0.25131005571016    8.63905772785820
H         5.95121041451982    0.22809635751342    7.17522038709688
C         6.01174308910827    4.80019571984506    5.07428035140781
H         6.54596144531683    4.42527453271803    4.19868893183286
H         6.11477523964855    5.88068258091803    5.11641586600117
H         4.95690086805934    4.56866667020831    4.95368482569995
C         6.00517737163772    9.66337631496615    5.46286748847831
H         5.49487735910980    8.77250049792431    5.83245510634724
H         6.66971804438961    9.36320191488661    4.65388923768663
H         5.26200810496433   10.34702988614530    5.06274572457774
C         6.69471560987149   13.51590551318336    8.59461004637817
H         5.87016372963492   13.41220546418023    9.30161141214940
H         6.35798095339604   14.14513135733900    7.77407823939649
H         7.51842386715624   14.00748290757103    9.10664603679772
C         9.34386216295906    9.29924347561309    9.18433335186945
H         8.82196907728907    8.41984561413895    9.56642708024326
H         9.73363897984764    9.86388177886353   10.02639469699008
H        10.18205425701640    8.96008405032735    8.57735788746113
C         4.40621112081500    8.77035453981118   10.10854011878604
C         3.99920033922084   10.04572582961602   10.52235584850300
H         4.55383469221259   10.90490632900941   10.18520363994046
C         2.89876412911019   10.20173464287964   11.34529176377593
C         2.19271769659737    9.07485235307304   11.76826062143102
H         1.33120861652996    9.19123307762670   12.40974625889056
C         2.57822150332832    7.80080296024773   11.37895317510956
H         2.00276481354918    6.95623320845516   11.72502982763819
C         3.67716542832557    7.63434641016848   10.55239688569582
C         5.52043240249564    8.58983325463639    9.25363927213244
H         6.04713761492108    9.50737291888008    9.00486263006574
C         2.99732164741485   12.68029359103374   11.50716418548730
C         2.66597839678893   14.97389711105641   11.93426901694265
H         3.75840306466209   15.01833405923590   11.99484843898280
H         2.22527755355177   15.52754553854017   12.76608542136971
C         2.19582176596395   15.54381082448557   10.59213054982519
H         2.57518406660543   14.88657115738068    9.80305133183800
C         0.67135211021324   15.57200491558198   10.52917996986099
H         0.26546635609662   14.58070190321718   10.71632209294250
H         0.33765986504001   15.90300903276677    9.54880019260680
H         0.27461227385179   16.25427199426514   11.27851801551205
C         2.77794760624622   16.94014205698656   10.39607120690696
H         2.44495633390208   17.60628084517958   11.18941883595315
H         2.45289018786239   17.35052647921898    9.44352888571193
H         3.86457429269866   16.90799697127917   10.40398405079718
C         3.68778308190318    5.20248138173342   10.53679387514565
H         2.58736839708564    5.19800980739839   10.51416077557066
C         4.22491823870463    4.17673683079612    9.54373219032176
H         3.82953337552844    4.37253464451331    8.54670657388204
H         3.94293494046787    3.17088739550306    9.84248297093355
H         5.31832234645602    4.23422772851412    9.51406512220126
C         4.20480444500174    4.93411341883148   11.94900125195875
H         5.29282518473253    4.98015278706249   11.94724683848570
H         3.88997326774643    3.94831955580750   12.28069231635736
H         3.83217843220135    5.67813269444224   12.64957985959170

