96
CSD_code = NOCYOW | q = 0 | S = 0 | Stoichiometry = C45H48ClNTi | MND = 12
Ti        2.70595679361985    9.26298057452038    7.73290732717495
Cl        2.77400419722480    9.78349195044379    5.52084211269312
N         3.88899702699619    7.83571941670644    7.48569899738856
H         4.88195123327726    7.98909052133059    7.32098028187962
C         1.45319847768277    7.35956737668764    7.92361400633820
C         0.81691433217545    8.16023282167444    6.94153779583669
C         0.34746252635043    9.33924977951797    7.58432215587296
C         0.63805613216850    9.23491016896702    8.97016203039376
C         1.37625407586584    8.03894984241552    9.17294264939622
C         0.49235587505361    7.70892825961583    5.55115829390558
H         0.52760719259419    8.53372194944401    4.84184173049492
H        -0.51410433831687    7.28266134792583    5.53364547038182
H         1.19761169376722    6.94172305312229    5.23237189122683
C        -0.45621443929633   10.40441259733706    6.89943199317081
H        -0.52450068070701   11.30827516128350    7.50429782383674
H        -1.47039808178438   10.04743437879484    6.70239851211042
H         0.00149784681231   10.66271477811437    5.94187071723712
C         0.02373634789885   10.07024151023118   10.05542632401950
H         0.71138582688779   10.26288097060053   10.87727404497562
H        -0.83811016628407    9.53656748139593   10.46460303872365
H        -0.33272611945827   11.02463464233034    9.67327366757881
C         1.82378975891294    7.44135546142522   10.47473625053848
H         2.88373139605557    7.17757967921682   10.43603648216411
H         1.26128167562774    6.52690832368659   10.67466417734316
H         1.65790571937354    8.12548894811344   11.30436585611076
C         2.28366659737162    6.17919933273300    7.64317187835504
H         1.88707208465280    5.17780985819215    7.63918225639972
C         3.56363005132193    6.51529364041095    7.38169810139466
C         4.71831375728732    5.54924841965724    7.11933935298274
C         5.52863996716860    5.68589139653469    8.40198060613760
C         4.94505103477501    5.27317674801003    9.59844513063105
H         3.97447575641802    4.79857735741711    9.57438088867435
C         5.58856024529716    5.46870756729947   10.80534268945213
H         5.12231658513273    5.13731258913432   11.72199002560271
C         6.82326357668406    6.09721966180840   10.84267803389833
H         7.32471752123810    6.25683149803552   11.78570806767042
C         7.40356538921002    6.52473609131232    9.66302274980577
H         8.36142352502406    7.02445702114079    9.67967051794773
C         6.76048084293975    6.32458159643197    8.45142871637663
H         7.23339497794729    6.66828382166099    7.54301441304437
C         4.24137600463553    4.13364875634393    6.84587518860928
C         4.76103583017686    3.02718287372628    7.50258468271107
H         5.50382594225264    3.15351471931492    8.27664458738174
C         4.33787409754375    1.75023636901080    7.17242312039237
H         4.74968454873791    0.90027156673986    7.69713882405924
C         3.39891454967043    1.56074734620894    6.17526262033097
H         3.06853776874859    0.56451265806444    5.92099222194133
C         2.89474851438219    2.65785238613802    5.49607363160472
H         2.17286534134219    2.51958543104203    4.70450496095548
C         3.31905380948435    3.93123190478460    5.82312374058702
H         2.93748293653429    4.78304688769457    5.27960071070993
C         5.50675648555622    5.92834642892796    5.87136991268901
C         6.68250172407506    5.23566572916177    5.59305998906398
H         7.01254500835723    4.45804484850202    6.26732204402246
C         7.42918905348107    5.53173939730364    4.46862591280831
H         8.34365512135762    4.99024673368472    4.27463051823375
C         7.00625434469371    6.51898045249761    3.59342615832229
H         7.59388358189769    6.75815342756112    2.71940518545175
C         5.82044578446232    7.18568708377590    3.84191656774872
H         5.46789840185375    7.94519855320925    3.15990173512713
C         5.06841669824683    6.88811092969592    4.96724310002907
H         4.13793624408085    7.41852245036188    5.12442189459590
C         4.65649352429936   10.61567431270197    7.85000694888451
C         4.50937976140646    9.93126464527442    9.08306136130074
H         5.21989152304819    9.25334746479245    9.53969351964087
C         3.32452587168084   10.37345172371634    9.70181008244613
H         3.02921691027466   10.12976172974499   10.71249567989957
C         2.72755610646829   11.33818490742336    8.86199452765961
H         1.87999174045084   11.96473558342592    9.10512353522203
C         3.54611308600364   11.48804064996101    7.73206016711492
H         3.38343880384832   12.21024969936044    6.94318273091890
C         5.78640141251175   10.46834511618495    6.85547773250299
H         5.47704168960775    9.73973366054670    6.08873082323221
C         6.09864636743452   11.77760694960143    6.11152758874554
H         5.18467408997973   12.14925410332525    5.63904727747448
C         7.13003532854505   11.49680244777813    5.01879911492873
H         6.73119487907824   10.76248963063819    4.31527357508077
H         7.33745219797455   12.41504128062925    4.46434324016673
C         8.41692833790883   10.97083211317064    5.64996086328052
H         9.15561821846857   10.76941192255510    4.86561031219917
C         8.11502198475700    9.67996265669013    6.40868011386997
H         9.03234655624492    9.28905712927282    6.85664428622542
H         7.73053285909580    8.92357753417358    5.71828650850338
C         7.08471307633847    9.96111314203561    7.50248236957401
H         6.88929172262508    9.03213910887759    8.04976518882740
C         6.64861572192127   12.82038592801196    7.08221016992175
H         6.84417300525576   13.75460132233331    6.55044813365520
H         5.91390131969664   13.02350717771567    7.86473586354025
C         8.97119486503597   12.01633068627202    6.61721907385209
H         9.19974636656330   12.93755714711246    6.07630017160381
H         9.89899061562516   11.65385040985505    7.06684873004899
C         7.63736462608209   11.00756601926278    8.46984461529173
H         8.54835984853584   10.62932534178557    8.94079751858528
H         6.90774310431460   11.20714245495420    9.25748363224725
C         7.93964373124877   12.29683984585085    7.70937674011372
H         8.33856274113461   13.04534162653547    8.40397343689889

