73
CSD_code = NOCYUC | q = 0 | S = 0 | Stoichiometry = C32H37Cl2NTi | MND = 12
Ti       -0.01002749060128    1.09021229526311    5.97006847472456
Cl        2.17403389006337    0.72830164080525    6.47133310941173
Cl        1.75084582393568   -2.02929823726825   -1.88069761705878
N         0.29629188778758    0.52605622530109    4.19676196585825
H         0.83822778987275    1.08758352284993    3.54121848892059
C        -1.03011124514749   -0.94723508475424    5.77567519158562
C        -2.04964005891034   -0.02125821449115    6.13264564173127
C        -1.79501575461598    0.41238810552758    7.45993230088173
C        -0.56902045096866   -0.16706790222962    7.88250711544819
C        -0.11429241994589   -1.04106311088545    6.85617430939561
C        -3.27878527428344    0.22058451571065    5.30719706492835
H        -3.87142593875326    1.04373548108221    5.70047011222175
H        -3.90683333669197   -0.67322794184043    5.30841072066738
H        -3.00908968951822    0.43658191823137    4.27139808364220
C        -2.78774037336370    1.10714502975997    8.34536708305724
H        -2.32025035161535    1.48570996620632    9.25188211046370
H        -3.55441899349335    0.38792930982345    8.64493490472169
H        -3.29079475427081    1.93259194544070    7.84400769395583
C         0.07926378377558   -0.03313321186037    9.22847305373802
H         1.16311132832941    0.03631004356320    9.11842837900019
H        -0.14328487312588   -0.90599973377662    9.84655519809025
H        -0.27019755984508    0.85474408367729    9.75422234328268
C         0.98109494897825   -2.05707595227724    6.95421579376670
H         1.38658541236361   -2.27045025179916    5.96460479236762
H         0.58001109701025   -2.98459578269408    7.37111969863976
H         1.78883170736187   -1.71273370666179    7.59662156070710
C        -0.80246758846566   -1.50234563812585    4.43576889231787
H        -1.12912651143643   -2.48779728261161    4.14844206275520
C        -0.05953711403921   -0.67746312106395    3.65815268742874
C         0.37961221513710   -1.01523124272081    2.29036303749445
C        -0.46235540205195   -1.69381074013770    1.41213205346770
H        -1.45585320371460   -1.96678345889492    1.73367694301668
C        -0.04611012957755   -2.00708644964961    0.13245266167616
H        -0.70272545530208   -2.52819102552587   -0.54659677674026
C         1.22664519984862   -1.64244493615383   -0.27832850484528
C         2.08444188375168   -0.97420687182269    0.58062832899617
H         3.07626337588463   -0.70511718472392    0.25261590823155
C         1.65717832561314   -0.66260532451749    1.85717485608699
H         2.33564859722892   -0.16591706431019    2.53747307330812
C         0.77885609613835    3.22960790662684    5.25744562875463
C         0.73258706206254    3.24425456174218    6.67312681060627
H         1.56866292989249    3.42371750289622    7.33536364648758
C        -0.59858554479848    3.08467577096576    7.08740452501561
H        -0.95140204857243    3.19259387631353    8.10420890187496
C        -1.39879245261758    2.96792217422917    5.92997570822309
H        -2.47876079633906    2.98593167004191    5.89157208857257
C        -0.55292162018649    3.05493849158143    4.80621456271771
H        -0.90145015653791    3.08596792148513    3.78169356861786
C         2.02119449787679    3.40818703285358    4.41469048925664
H         2.54677706007218    2.44043597443978    4.37483914049339
C         1.71601361511860    3.85704820296277    2.97633272319098
H         1.01238602036295    3.15791104636569    2.50621804711525
C         3.01151137121254    3.86322510057020    2.16384707849098
H         3.44665158316732    2.86062341461573    2.14706402941465
H         2.79756247266854    4.15127054863210    1.13162158228057
C         4.00143881365569    4.84709999237979    2.78464143237934
H         4.92929777261786    4.84835472643228    2.20130236666996
C         4.29926941845349    4.42398533423558    4.22110825801060
H         5.01234891220343    5.11801722957577    4.67195020078603
H         4.74834502633349    3.42828593339190    4.23433740602484
C         3.00459506935280    4.41763510356559    5.03326521705422
H         3.23797095725123    4.11148800315034    6.05690941403085
C         1.11266845337484    5.26218964003236    2.97468113955041
H         0.88433214730344    5.56200313437345    1.94871803364171
H         0.18215057841666    5.27288999658056    3.54524886804920
C         3.39719674212869    6.25049489092730    2.78570403046907
H         4.10589362197269    6.95905527098384    3.22049185359535
H         3.19191604529880    6.56909312004240    1.76080301311011
C         2.39220800866238    5.81649402490379    5.03464692147375
H         1.46638005229032    5.81474858726083    5.61461727642689
H         3.08310055912530    6.52209230809338    5.50191209270723
C         2.10240682746183    6.24460471378139    3.59701429996210
H         1.66660760708048    7.25042218224584    3.59544684850675

