94
CSD_code = NOCZUD | q = 0 | S = 0 | Stoichiometry = C32H56O3P2Ru | MND = 6
Ru        5.38736512439004    7.30928750791514   11.10319862680825
P         6.86309365393367    5.42204506387200   10.87219540908283
P         4.04236465622619    9.28848595002682   11.28126407284006
O         5.01532542367212    6.89447034007300   13.27258453058770
O         7.07550423622370    8.36537701080137   11.88681143376311
O         3.02245158453177    5.73658758898668   10.21181389091803
C         5.93619465198006    7.91093207303099    9.23170140846201
H         6.83926840751634    8.53081640185047    9.24178191319573
C         5.38718063051008    7.70071172889407    8.03390668291266
H         4.49775131291507    7.08302812963979    7.95209312719303
C         5.87281634707862    8.19786422942064    6.74946048439559
C         5.33680266156689    7.66757136144517    5.57267668955723
H         4.57449365048081    6.90351999859888    5.64252093808385
C         5.76664168868276    8.09575561410971    4.33250470487208
H         5.33939582400450    7.66664850706677    3.43673367977266
C         6.74165612480151    9.07479916578725    4.23290931450186
H         7.07829766320885    9.41360583870013    3.26383335817495
C         7.27704805006935    9.61941647299515    5.38873255096225
H         8.03281934835135   10.38985188789490    5.32022454413861
C         6.84981391541502    9.18878653165840    6.62924926296832
H         7.27438796425865    9.63434574160124    7.51703241588770
C         6.99300013059076    4.74618471852474    9.12461242275978
H         7.22097113236373    5.65014917667880    8.54349488244841
C         5.65854672675898    4.20499899103547    8.62004168088968
H         5.44807009280595    3.22776753207376    9.04947837404126
H         5.69652402721944    4.09480419263075    7.53716398239964
H         4.85060798180735    4.88713773598358    8.86152256257862
C         8.07458494428220    3.70286270223112    8.85725033891157
H         9.07330445302535    4.10446021461624    8.98072664810489
H         7.98139293553236    3.36423719205963    7.82572384944817
H         7.96161441538974    2.83189971206007    9.49881096417173
C         6.45192043036719    3.93108746756124   11.93639245589148
H         6.90021537956008    3.04613334552132   11.46722726481535
C         4.93676067945819    3.75193454714616   11.99713232511562
H         4.48738032200037    4.62883204369264   12.46309465806589
H         4.68716631770362    2.87704639466256   12.59733725878930
H         4.49966926875129    3.62496865345044   11.01161864520293
C         6.97283518243767    4.07559121918596   13.36616358966413
H         8.05635694515545    4.07300522642341   13.42541865407424
H         6.60123917143206    3.24905261064636   13.97171664665346
H         6.60496248444724    5.00041822078509   13.80161783519460
C         8.65349635500305    5.76858985196692   11.33293016768122
H         8.54614514631806    6.23636014451385   12.32079936414405
C         9.61985421529153    4.58195834597916   11.47585445329673
H         9.11419188159013    3.62333203417870   11.52735841826756
H        10.21910422522697    4.69751632329534   12.37834767315453
H        10.31095058526557    4.54881466280208   10.63713705514192
C         9.24015253237442    6.81605701341471   10.38789384819867
H         9.35351672930422    6.42141302066258    9.38047096024602
H        10.22061332247931    7.13007347992053   10.74592585747614
H         8.59235644055503    7.68739464877701   10.34406535640108
C         3.19553216880328    9.79070090604256    9.67364589299644
H         3.97966086686470    9.57986735649883    8.93351266535337
C         2.01561219693542    8.87915126044660    9.34440473221787
H         2.27360809410142    7.83799285843451    9.50364152932807
H         1.74199409559674    9.00133068562605    8.29708755530100
H         1.14510352051041    9.12684539503278    9.94717843111765
C         2.76879071373454   11.24892697391063    9.50106770744392
H         2.06919675462728   11.56715963834356   10.26852413141886
H         2.26794979007666   11.34335975917198    8.53779643069411
H         3.61612526077716   11.92837984535088    9.48992296508879
C         4.87682975260913   10.90812215929106   11.72619187495367
H         4.14530365527866   11.70389990489828   11.55160577448667
C         6.06700248673860   11.12023899817759   10.79312948641260
H         6.82704709946307   10.36808901490218   10.98879727566911
H         6.50445005653983   12.10623406560719   10.95148019765077
H         5.76723462325229   11.03766595593243    9.74985064380249
C         5.31209287430957   10.98543372057344   13.18854127084714
H         4.46550051141501   11.15987245926095   13.84947885012753
H         6.01037337051989   11.81232205171513   13.31794436831480
H         5.81051204396965   10.07192039003757   13.50315360570046
C         2.75978154281673    9.18297014554318   12.64516116134524
H         3.38272728174768    9.20097540382766   13.55037849510289
C         1.76207876825140   10.33578826546450   12.72102010272297
H         2.25459867870016   11.30502561966389   12.71382094576256
H         1.19251544601820   10.25761882411064   13.64720681949677
H         1.05613371566114   10.29290250586520   11.89604184181408
C         2.03041651233505    7.84173390139930   12.64764125086185
H         1.38860350685029    7.72639458100403   11.77951350011581
H         1.41118870631372    7.76441129853936   13.54138932385336
H         2.75189465728916    7.02690564657418   12.66123023907981
C         5.70821986199999    7.24018805591491   14.25656583601701
C         6.93051596647875    7.92596546205934   14.21819364548106
H         7.43190793869288    8.10871552093484   15.15694417867074
C         7.52631548950296    8.43004878535548   13.05779210931148
C         5.17700914229260    6.87653613219188   15.63408789984790
H         4.96957917557878    7.78266180396809   16.20053272351212
H         5.91438900302476    6.29420933162673   16.18276919675952
H         4.26085741724240    6.29941485867541   15.53313836400755
C         8.83865833129445    9.17717284928739   13.24112397850024
H         9.22448800594107    9.49663217546158   12.27590168708545
H         9.57130720427650    8.53683507587264   13.72794267946250
H         8.68212007671845   10.05223502637509   13.86925544494447
C         3.95149626041948    6.35825676432098   10.51613595498621

