63
CSD_code = NODCUE | q = 0 | S = 0 | Stoichiometry = C20H27BN7O6STc | MND = 7
Tc       16.40818193857977    9.56513854814318    5.97318115417452
S        19.38838337821165    9.22296641317534    2.46949167936038
O        14.73407972907711    7.19589727940868    7.11745133433424
O        15.29281476236745   12.16518214136181    6.42139393121401
O        16.96472040073186    7.29969441906095    8.07335976997675
O        17.82863795434814   11.96564732513366    6.33671022325033
O        16.66388550281613    6.53971304173794    5.77718397600167
O        15.09997240834842   10.94878903575763    3.89222736957799
N        14.76628540215519    8.54575942366165    6.94609617324766
N        14.98370275778398   10.99625568991110    6.65507639639672
N        17.25364645899934    8.55985542185453    7.68040984382455
N        17.71459499799758   10.91322271294460    6.96124376564172
N        16.30789474516488    7.65145252001618    5.12561095477795
N        15.41960839221039    9.77908472143543    4.15859743590759
N        18.03407275381852    9.66428909759230    4.82419635718126
C        13.71796125972682    9.21361322844875    7.32521570401189
C        12.49495728827470    8.58132922843640    7.90340176467788
C        11.60770076934535    9.62307586831591    8.58151586077024
C        11.42134792033757   10.83744603983322    7.67493181249215
C        12.74618050966625   11.57517450391276    7.50327142286457
C        13.83366648169750   10.60751577473593    7.14423541002218
C        18.12503211129267    9.19701437688121    8.40768722390810
C        18.78856427890913    8.58250604383652    9.59762016690887
C        20.03135125493228    9.37052221759738   10.00605623361699
C        19.72210849964197   10.86337044307030   10.07411456513746
C        19.41093000460401   11.39809310635011    8.67927758914589
C        18.39474717018575   10.52573471266759    8.00264877901174
C        15.89389289258595    7.56262142379938    3.89766315154170
C        15.92924822420119    6.28094613053024    3.13480029986067
C        15.14497039219321    6.38860352993581    1.82956244510727
C        15.50451941643378    7.68115946595546    1.10100672465506
C        15.00076903749733    8.88465680912754    1.89237687986085
C        15.42593245393554    8.77291237438941    3.32470200576416
C        15.92147710590388    5.01028393705410    7.70820089918802
C        18.59151169428337    9.47429043672452    3.79988871522143
B        16.06697787672841    6.52052181771109    7.18207450931956
H        12.80103794296197    7.79343455413095    8.59606091111884
H        11.95103056658671    8.09065380957720    7.09030336933186
H        12.06696739658276    9.94147990478944    9.51921799219260
H        10.64146749845083    9.17461961210780    8.81586298901291
H        11.05490517203616   10.50913598841745    6.70057162441609
H        10.68191899517903   11.51611864014215    8.10163245903430
H        13.01690152973945   12.08778084805503    8.43205599430895
H        12.68635974890406   12.33700514579356    6.72185528667933
H        18.06347001252724    8.56428944152681   10.41727523873767
H        19.02834735845936    7.54208347058095    9.36711428283418
H        20.82635021886330    9.20135050712352    9.27793456823069
H        20.38071076279600    9.01246433184193   10.97521961552489
H        18.86612870218255   11.02754120205571   10.73129263106338
H        20.57330101306917   11.40582813919418   10.48716340317909
H        20.31966076181099   11.41317204653272    8.06911341712891
H        19.03154740680255   12.42180869407030    8.71643795237125
H        16.97947187949168    6.05161259506908    2.92836169997138
H        15.55427882684807    5.47909619910589    3.77692865087571
H        14.07356748952748    6.37820444859266    2.04033824071735
H        15.37252419146025    5.52552645231763    1.20310955755225
H        15.05989815271922    7.69072699558970    0.10530520197620
H        16.58818622367009    7.74568377933150    0.98900141127331
H        15.38771050560429    9.82257530870009    1.48577740718681
H        13.90790260834769    8.93931418793362    1.84608449399470
H        16.77101540149051    4.41477557833992    7.39335729114748
H        15.02069821840660    4.54944141846337    7.31746524270868
H        15.87251319049785    4.98343744010621    8.79117653947432

