48
CSD_code = NODCAM | q = 0 | S = 0 | Stoichiometry = C17H24Cl2N2O2Pd | MND = 4
Pd        2.35842417318714    9.71573877565127    7.63514484518529
Cl        0.96657820145432    8.60513925725824    8.99193199335937
Cl        1.30871035532866    9.01551283656137    5.80566320982913
O         3.51323112749888    9.33451566489012   10.28142269930487
H         2.61901615414373    8.88189619624184   10.22847728520509
O         5.74821546273775   10.76484546547669    4.63790171726674
N         3.50427417152627   10.15947038168600    9.19043309148987
N         3.91913639135259   10.82151169312943    6.61233868508545
H         4.66719258646736   10.14494412503106    6.43074522424008
C         5.77188629375195   12.32487887394591    7.37516477632496
H         5.75468812386951   12.89233977945330    6.44454968414671
C         4.38720801081655   11.75149981690708    7.69563590453669
C         4.51496148844268   10.90267275347505    8.95135521468115
C         5.79089398356649   10.86031271351834    9.74296293664029
H         6.04542916258460    9.80587402542110    9.89858244953799
H         5.63739285385244   11.28361935526321   10.73879076857892
C         6.91111471244509   11.57196982106698    8.99060216111556
H         7.87003370453356   11.45253539960298    9.49403452291292
C         6.48010240021944   12.99997966396782    8.58863652780428
C         6.80041983914481   11.18167687367907    7.51079097253899
H         6.45963944879525   10.16694290488096    7.31215735429113
H         7.70843384196974   11.35353862485431    6.94216348476866
C         5.73423302812443   13.82613877553616    9.62816893563257
H         6.44203702135509   14.13040662994226   10.39802648044066
H         4.93520711482476   13.28099553075885   10.11817683113287
H         5.32722825926844   14.72811343822335    9.17621039562221
C         7.65678629390825   13.84932546982133    8.10508672300821
H         7.28888370382720   14.78751736545840    7.69456928680229
H         8.24123103093537   13.35187598189025    7.33809661549479
H         8.31773562288423   14.07852941477687    8.93833907866184
C         3.29167296291860   12.81193721925550    7.87154849452062
H         3.47829893249047   13.44277494548220    8.73007727860305
H         2.32635364041323   12.30646295938488    8.02306410659883
H         3.23552452279162   13.44015101270711    6.98606097471534
C         3.60162652131336   11.40354734054210    5.34267219832329
C         2.34382239345186   11.92889670504217    5.08944851547577
H         1.58227776955013   11.87722170951468    5.86031291527782
C         2.04201569108513   12.45459754820893    3.84523137086862
H         1.05907293364801   12.85500231026695    3.65605965833027
C         2.99443651126093   12.43871187348622    2.84375242556265
H         2.76483110877460   12.84141422416534    1.86917728986159
C         4.24350891373328   11.88353760109288    3.06781484116474
H         4.96274141264882   11.85846141357473    2.26486161555105
C         4.55590439072282   11.35732789550681    4.31321877713773
C         6.69130405462461   10.55254731363259    3.61560163758838
H         6.27095497412696    9.95568954766232    2.80132350096714
H         7.50959262796426   10.00386344689112    4.07986343489187
H         7.07143607566843   11.49883732521140    3.21805110891632

