25
CSD_code = NODDOB | q = 1 | S = 0 | Stoichiometry = C6H12AuN2S4(1+) | MND = 4
Au        0.01956247845361    6.01890188084609   -0.00334713347491
S        -0.26835529170238    6.95126855677154    2.16714643463167
S         1.24923216765512    4.64674121261029    1.50276348282587
N         1.03539571651591    5.52691279062033    4.02330979722471
C         0.72248945988978    5.68370096202893    2.76491847713266
C         1.86375539155968    4.43704184717435    4.48072912057571
H         2.03002668848409    3.72165934415382    3.67745623398653
H         1.37249254515027    3.93464455123790    5.31427915426982
H         2.82775553016527    4.81980368136058    4.82047681527207
C         0.57405664495199    6.43074069765427    5.04970363432131
H         0.09990773590537    7.30337077525599    4.60407241768757
H         1.42113598844505    6.75175974812900    5.65638012077928
H        -0.14718670024947    5.92469132372023    5.69403219722565
S         0.30056622538657    5.08079350331960   -2.17230030049537
S        -1.21720984245456    7.38544412763879   -1.50864066365130
N        -1.03465033954219    6.48196417821259   -4.02350009676708
C        -0.70319067417103    6.33900677924148   -2.76821432681163
C        -1.87458606485591    7.56344654963643   -4.47976394390658
H        -2.03287712516247    8.28590731874947   -3.68127728615673
H        -1.39763666090358    8.05989707610079   -5.32505090174692
H        -2.84142219550168    7.17287497782857   -4.80201728218560
C        -0.58469514033977    5.56917287886330   -5.04703574852139
H        -0.10565986436852    4.70045879649895   -4.59887464024160
H        -1.43849061590955    5.24288453700897   -5.64152741466870
H         0.12958394259818    6.06941190533762   -5.70371814730476

