59
CSD_code = NODHUK | q = 0 | S = 0 | Stoichiometry = C16H36CrN4P2 | MND = 4
Cr       12.12429039528331    2.98242051346114    1.33523349751550
P        10.62328142783674    4.82964754797238    1.90319800105441
N        11.40353305635378    4.53040685354479    0.48909983104300
N        10.36799083245505    3.22544976135408    2.11952507772021
C        11.91345246676401    5.52544522016784   -0.42149524933023
C        12.56047021194339    4.78721748154973   -1.60000168486486
C        12.97695773161360    6.39300526527317    0.26966698406063
C        10.76717417028786    6.41460146787063   -0.91948591594743
C         9.59039194411271    2.61359062103478    3.16861958228595
C         9.15036734704216    3.62903061802691    4.23071794896557
C         8.34057678402835    1.98327154890619    2.53114205422510
C        10.43275538288185    1.51570678590479    3.83521883175791
H        13.27422889898865    4.05803874350968   -1.21365671824318
H        11.80027662530221    4.26243851182731   -2.17263238760897
H        13.07539632377617    5.48641326866161   -2.25422026439720
H        12.53403393162137    6.92677021744277    1.10989781220464
H        13.77665261664077    5.75056655205495    0.63704587044197
H        13.39460929087784    7.11758301436398   -0.42556296590336
H        10.32762859500968    6.95378298843623   -0.08103001123433
H        11.12809321248406    7.13167383346669   -1.65272145775516
H         9.99477911201788    5.79837676927482   -1.37474739926892
H         8.56512142046482    3.13981906938040    5.00607409318544
H        10.02154650034921    4.09710361780334    4.68737996843526
H         8.54350573219454    4.40732041544353    3.76998170182247
H         8.63318991774884    1.25496250901150    1.77832900021055
H         7.73262709833207    1.48947966973128    3.28523978539624
H         7.74814161842974    2.75697243111868    2.04734080874565
H         9.84998110231954    0.99359801993326    4.59051647047435
H        10.76959424357735    0.79658641419826    3.08888095022964
H        11.30934833566420    1.95631400062233    4.31043612459602
P        13.62562836639806    1.13501248642613    1.90258387059959
N        12.84575583013591    1.43448138985025    0.48840950322796
N        13.87989007468472    2.73910114692055    2.12005527760094
C        12.33576503297511    0.43931824262868   -0.42206070423335
C        11.69034945502382    1.17713218855830   -1.60166795776088
C        11.27094279964292   -0.42691010987194    0.26883587711167
C        13.48167389723337   -0.45119959273720   -0.91850928023982
C        14.65830313124456    3.35092300632494    3.16849468263631
C        15.09862140090646    2.33531873132841    4.23033245219765
C        15.90777627225947    3.98066086567715    2.52973551448659
C        13.81648457429801    4.44903304916613    3.83545070421658
H        10.97603117219281    1.90643299929861   -1.21665136489459
H        12.45128937376530    1.70168678502547   -2.17357478023058
H        11.17628743382535    0.47764769362560   -2.25627639570622
H        11.71289028241374   -0.96077154810334    1.10949875483384
H        10.47170319173269    0.21640987577485    0.63547413842880
H        10.85297924478596   -1.15137328726350   -0.42632080009109
H        13.91931899131114   -0.99103301702171   -0.07947843210989
H        13.12095031253885   -1.16775057234367   -1.65235614227224
H        14.25548364545498    0.16411882512315   -1.37257531061923
H        15.68423623426073    2.82462825492949    5.00531401579136
H        14.22766084308723    1.86735186534798    4.68754127857098
H        15.70527361157259    1.55695062687535    3.76944180468068
H        15.61473784677953    4.70907266267170    1.77716411298734
H        16.51658370113807    4.47424104070960    3.28326851207086
H        16.49947953699211    3.20671640008093    2.04541234137669
H        14.40015030701194    4.97136496924208    4.58987320991829
H        13.47887638992292    5.16790022013705    3.08922590274170
H        12.94038072000259    4.00874107026449    4.31186887489298

