60
CSD_code = NODKIC | q = 0 | S = 0 | Stoichiometry = C27H26FeN2O2P2 | MND = 4
Fe        0.28973384912460    5.14395859486894    4.28515775556742
P         2.25356143589956    5.81981160601418    4.98215651880159
P         0.45875130921033    5.93356621198178    2.25920171420806
N        -0.79617636899715    6.12988235704329    4.93761098254865
C         1.27941177423043    7.59550207168902    2.19705472062162
C         3.68394678738940    4.71168114596958    4.71700296184071
C         2.71061851234824    7.53116263071662    2.73574956119930
C         3.55733425265764    3.46328054601035    5.32542625052708
O        -1.58606359333754    6.90606509963612    5.36676383653920
C        -1.07692184206628    6.20513740903166    1.31459414292930
C         2.80339007872432    7.44067709534731    4.26233249665615
C        -1.74026558063212    5.04234598186425    0.92419981543813
C         1.46669211837118    5.08756330714265    0.98799083179572
C         2.35415956859050    4.09080528649641    1.37456905439358
C        -3.48508749511263    6.35393204484522   -0.05819053228603
N         0.32705953452410    3.54096788439622    4.23114126152413
C         2.53656178015887    6.20446365498570    6.74963456415117
C        -1.64177535917801    7.44270085708875    1.03368662198531
C         5.67110290508002    2.78967049633875    4.42722287674313
C         4.54538766703170    2.50949363603007    5.18686962238654
C         1.39398646456446    5.46246457707031   -0.35094908531062
C         4.81727454464984    4.98827983360402    3.96242719991550
C         1.63886594924442    6.50844479696087    8.95896360848722
C        -2.84255467732636    7.51080417978170    0.34640095679980
O         0.40124519874551    2.35805034949846    4.16590500849924
C         2.20690025371912    4.84835169942987   -1.28459085594462
C         5.80347540295941    4.02611331562845    3.81997373964753
C         3.81289171632347    6.47784702359129    7.23458523294836
C         2.90808091322940    6.79068798953082    9.43492087802334
C         3.99384984964881    6.77073280281150    8.57284797815075
C         1.45428561764868    6.21142742649138    7.62004267666821
C         3.09878466527084    3.86194336628183   -0.89149665700357
C        -2.93311203914175    5.11557337856336    0.23395604976519
C         3.17108850868261    3.48239281810715    0.43800626106735
H         3.24081569028448    8.43573433357671    2.41777040361734
H         0.68230325740692    8.29104951415388    2.79651190036354
H         2.15261760094017    8.19788858942120    4.71770554160973
H         3.82752284687025    7.64357262444092    4.59390169685746
H         3.21621379606644    6.67474093554814    2.27672845613863
H         1.29305277262381    7.93884147523628    1.15636373582091
H        -1.15677854577808    8.35455454793251    1.35007317481652
H         6.44307124427904    2.04381209926331    4.30791753744935
H         2.66514076776960    3.25417371278991    5.90422090678892
H         2.39794722726012    3.79103619252624    2.41409541432159
H        -1.30233884527094    4.08325398654828    1.17591842060308
H        -3.27932549063889    8.47494940703447    0.12892859136723
H         4.66303880063398    6.44654818011778    6.56625131062017
H        -4.42093396861955    6.41552179556454   -0.59364341904098
H         6.68035045651744    4.24638272398454    3.22790945464674
H         0.69288158624088    6.22724052672605   -0.65791258972941
H         4.94458450276653    5.94664108666136    3.48132049334163
H         3.05511735768404    7.01972008684165   10.48012420092801
H         2.14623533766594    5.13861723508419   -2.32353666341105
H         4.43722654973482    1.54602364483387    5.66233854614858
H         3.73311178629194    3.38646007467973   -1.62505393454729
H         0.46954817704662    5.97362888977093    7.23549521841612
H         4.98514667068622    6.98090441710428    8.94778610408383
H         3.86031364808320    2.71076651154955    0.74845844167039
H         0.79347426904182    6.51588585342559    9.63101430492778
H        -3.43872119787080    4.21137008033687   -0.07125529709917

