66
CSD_code = NODKOG | q = 0 | S = 0 | Stoichiometry = C28H29NO7W | MND = 6
W         3.67502970736118    1.90014831322959    0.58727298118533
C         4.19356222925357    3.81372711670085    0.84844030722883
O         4.53952054631008    4.89020568841539    1.01229655358671
C         4.25282868380240    2.07541411658966   -1.31739912465854
O         4.68609424048952    2.18594072930583   -2.37243806340302
C         3.25383097163394   -0.03924932488756    0.36355198673228
O         3.13801456431350   -1.17661071669853    0.28690592113212
C         5.54205398802063    1.32033139710752    1.01241774829982
O         6.60759416673294    0.97718466500769    1.24758675752038
C         3.14412635365536    1.75196603326420    2.50783673265061
O         2.84387233689069    1.67922564804970    3.60861320438061
C         0.05577699755176    1.08420621778739   -2.70762234143691
H        -0.93380346352369    0.95716840661068   -2.27499850574097
H         0.25475080407338    0.25974296392525   -3.38569872086807
H         0.07753455883022    2.01470578133765   -3.26998905075326
C         1.10547594699992    1.11106611127518   -1.60593592845748
H         2.10526051232133    1.27858335178255   -2.02639709957568
H         1.10990972304116    0.15710270145870   -1.06342385128819
O         0.77257530682805    2.15198966353297   -0.70735430411046
C         1.64490437285171    2.57543729780610    0.20554040824935
C         1.08515405183921    3.59112005763846    1.03431445194768
H         1.71585549021130    3.91394494818336    1.85411154877470
C        -0.15684325519147    4.18905118386827    0.96244555373873
C        -0.51207213360062    5.12081361339086    2.04602292401806
C        -1.03474194922270    6.37619767087843    1.74314979086161
H        -1.19877140288876    6.64443306460682    0.70903909619733
C        -1.31203725547616    7.28428417141764    2.74758528432859
H        -1.70837540982632    8.25813739695376    2.49870235937979
C        -1.08036345541801    6.94964735134242    4.07169621137176
H        -1.30174460190891    7.65764177785278    4.85658660875242
C        -0.55959315472849    5.70420512820169    4.38402841208847
H        -0.37651400052420    5.43945286031908    5.41530073785087
C        -0.26835689609422    4.80022949906773    3.38020503155461
H         0.13311987162576    3.82829246061924    3.62700581810074
C        -1.05564688056781    4.03961823768430   -0.13358529518957
H        -0.60327197996769    3.84294878284749   -1.09364858398019
C        -2.41677788657832    4.08132539397901   -0.05358889275393
C        -3.10890235765260    4.04269017072995    1.24986622232285
C        -4.12193580175393    5.12433958431745    1.52834216123789
H        -3.75194760258712    6.07059392634630    1.12759173077947
H        -5.06406701239017    4.90275779483696    1.01785389570445
C        -4.38069733936505    5.25580709672206    3.02624339547925
H        -3.50066418008271    5.68228866593636    3.51008616240367
H        -5.22291709893536    5.92919025420230    3.19621010113201
C        -4.66675446396488    3.88347469406693    3.62374716523694
H        -5.49951034759497    3.42132787349401    3.08823251311678
H        -4.95342421212845    3.97655088933841    4.67230670547316
C        -3.42615203424862    3.00438739767142    3.49908629110620
H        -3.67009284454432    1.96273052285841    3.72249123033177
H        -2.67343181316848    3.32167247099156    4.22913648515853
C        -2.81484009902919    3.09860456853606    2.14048122631275
H        -2.07357128220152    2.34904235401331    1.89774613562258
N        -3.21508734637104    4.14742196936313   -1.16389030180734
C        -4.42490772620560    3.35778573265253   -1.26788386628875
H        -4.80437949418885    3.11685346195579   -0.27656394105317
H        -4.20290830575244    2.41693070592534   -1.79487228621871
C        -5.46220077356679    4.13366106497760   -2.08260665374257
H        -6.35755051573213    3.53200292526700   -2.24521578211454
H        -5.73387269667068    5.05850341068567   -1.55042653041971
O        -4.95642273967033    4.44589079526870   -3.35915742872596
C        -3.78148543334049    5.21299065222421   -3.25747926061541
H        -4.00312260944758    6.17060850869855   -2.76116967137201
H        -3.45121279217928    5.40442493035437   -4.27942700099703
C        -2.68648033076801    4.48319106426234   -2.46711894162427
H        -2.38334320096777    3.57986906350492   -3.01608712231006
H        -1.82744924457793    5.14497769039202   -2.35669930184737

