62
CSD_code = NODKIA | q = 0 | S = 0 | Stoichiometry = C24H32CrO5 | MND = 9
Cr        3.74054244286435    7.95746210190989    1.39753579510406
O         1.31002191418610   10.12979764629454    0.35526870291315
O         2.47676084437784   10.67794878789894    2.85041186842823
O         5.68028731600884    5.72652006661657    1.07612128736238
O         4.87815446412642    8.65547883177523   -1.26129256168138
O         6.27818750951849    9.28537535339413    2.19872441195368
C         2.37928976496339    7.01645579692728    2.98653321423289
C         1.90531895480152    6.72360967207553    1.68713934320400
C         1.57494639971836    7.73559516849605    0.78707870815943
C         1.72002965988486    9.09259428447263    1.14703263915613
C         2.28947175203036    9.40072101904461    2.39961775861702
C         2.61933553902864    8.35527108349299    3.31259556371245
C         3.21944082195987    8.74214861964660    4.63850610850100
C         4.05362776417083    7.57379091043603    5.16216044877101
C         3.20678402573397    6.31535754076186    5.28951383493063
C         2.64030681901946    5.86486497627834    3.93730167562917
C         1.15151103226844    9.89295886075199   -1.02799256625643
C         3.08090749569958   11.60969804914500    1.96938204603394
C         2.12820099833585    9.19831808597019    5.61347396744939
C         1.36389053938994    4.99935823365321    4.10134232140662
C         1.58121389843480    3.79342093995918    5.02179515300918
C         2.62976697653221    2.80304079235666    4.50184747610160
C         2.68603575828985    1.59199892421719    5.38162131405477
C         3.64347402502343    1.30571198251075    6.25524392151246
C         4.85284715282464    2.17545646522451    6.46944635909008
C         3.58846257839960    0.07089366399887    7.10389118927774
C         0.17023237024428    5.82232790117613    4.58958889548591
C         4.89656679028365    6.56786604812747    1.20914055788738
C         4.39843400316459    8.38949069717817   -0.23940682845965
C         5.26936393706923    8.78994362956470    1.91865596414839
H         1.71376055183453    5.69640821735389    1.40227514478130
H         1.11829239940137    7.47854031532290   -0.15964719049220
H         3.88414213951164    9.59747203659986    4.47325135659753
H         4.47678327203235    7.83249272766978    6.13426535232226
H         4.87965059138518    7.39372903819581    4.46759512811159
H         3.81730130935548    5.51190301665744    5.70351870172555
H         2.39839068653932    6.50768852441379    5.99381509697147
H         3.39409693887776    5.23463953252080    3.44852714126038
H         2.03566681409787    9.40407408051787   -1.44838107377683
H         1.03067900741726   10.87623997766094   -1.47942095782679
H         0.25866733485878    9.29492463182643   -1.23646580321430
H         2.37283085153601   11.97924592982507    1.22551316083709
H         3.94344607815353   11.15749893970854    1.46555562201263
H         3.41193014517270   12.43230663263509    2.60156197416554
H         2.55988268655382    9.40443836640795    6.59012945426132
H         1.66682160523877   10.10843882870647    5.23845372287180
H         1.35292290374099    8.44476671026941    5.72428385871635
H         1.10479934380822    4.60138399349365    3.11396466517474
H         1.86542109957457    4.12583565607327    6.02084528849127
H         0.62805042511816    3.26664231683604    5.11675954168950
H         2.35578071546129    2.49700029957139    3.48812783918350
H         3.60711614691854    3.28047485176388    4.45920920875754
H         1.83929954568352    0.92363763133551    5.29045445199489
H         4.56276191949282    3.15392391766029    6.85131671671437
H         5.39674281841503    2.32609101805167    5.53785014708297
H         5.52822141499218    1.71771570521828    7.18732838731554
H         2.68324420467589   -0.50008520466748    6.91370147897304
H         3.61766501905913    0.33888541412973    8.16001382862497
H         4.45062915887701   -0.56372754903981    6.89887820984492
H         0.29648191116982    6.12706211330091    5.62575057193334
H        -0.73970931357983    5.22907336872569    4.52982954245630
H         0.03521672626892    6.71340282789492    3.97876086272489

