61
CSD_code = NODKEY | q = 0 | S = 0 | Stoichiometry = C30H24FeN2O2P2 | MND = 4
Fe        9.10516336433211   13.39007224068246    4.23096739974057
P         7.51779208346699   11.90889239804241    4.41709883390465
P         7.63094184736723   14.97506586656793    4.50155884016749
N         9.47597829734861   13.42678485932601    2.66759403055452
O        10.73226591026885   13.21271582242759    6.49228486067601
C         7.70397955499767   16.30732837567563    5.75002105282238
C         7.50424456559186   10.52834859737336    5.61327496899429
C         5.99867647985245   12.78525634070650    4.97534571174251
N        10.06821780836790   13.29462637211285    5.51168102784929
C         6.04650385749963   14.18239096753516    5.00921844952338
C         4.93285745119793   14.90171450098173    5.42841770143051
O         9.67081561260279   13.45191820884356    1.49994773869731
C         6.96373630359944   11.10288318632678    2.88072029383931
C         4.84071273431045   12.12107367631081    5.36497396893362
C         7.17659392236993   17.57961816390434    5.55133178698194
C         7.14008135801597   15.88297722059225    3.00126683499242
C         7.05134769379187    9.24631062589869    5.32241081604246
C         8.08752018495737   16.76963358342109    2.49116336134902
C         3.78384802373646   14.23226707908819    5.81132575672274
C         8.34602850778854   16.92714696056324    7.98479559011051
C         5.75121092885671   11.34913532207715    2.24976322294419
C         8.29053525555740   15.98904663695362    6.97156731583193
C         3.73803678549224   12.84591390791357    5.78130983985461
C         7.84333795919036   17.44516575366829    1.31236366181672
C         7.89959140166905   10.26297227824725    2.27770517377913
C         7.82098689433156   18.19343516807832    7.78241569463585
C         7.23992540331540   18.51680834451319    6.56728543610607
C         6.39239208108076    9.88453715230934    0.45635220139615
C         7.05996788456854    8.27476389016551    6.30837088500718
C         7.96286394945062    9.85180110309699    7.87651490336881
C         7.61115349992832    9.64917078262352    1.07542048512137
C         7.96170353237500   10.82373344321056    6.89526186921124
C         6.65885513478132   17.22659034173838    0.62454671014745
C         5.96300399988215   15.65297523017641    2.30055661442742
C         5.46996306741977   10.73525434825277    1.04074944418275
C         5.72569470924332   16.33018162183490    1.11647214737062
C         7.51278960970416    8.57413588156197    7.58231771811649
H         4.81101617410093   11.03987928279599    5.34406100318659
H         5.02882733500381   12.01806569378453    2.69690086016067
H         6.72720400879984   17.83930193854801    4.60254651023132
H         9.01503975811537   16.91334678487160    3.03325784966239
H         8.85455456068819   10.10871571313531    2.76727723226643
H         2.92107635421110   14.79252292117529    6.14061260933593
H         2.84034136539956   12.32950439079010    6.08810833293802
H         5.23511254324192   14.94649262369231    2.67574786534209
H         4.97147676460632   15.98204539518157    5.45787593817773
H         8.70989067709952   15.00203936971866    7.11503654714638
H         6.83386685925066   19.50544600288527    6.40855767403383
H         8.57710280534328   18.13487735529100    0.92195430288422
H         7.86857284096816   18.93055730334698    8.57030724547255
H         6.69898193625232    9.00640892773665    4.32868895069382
H         6.46874740763055   17.74931944776550   -0.30117399122490
H         8.80357168058030   16.67428855130403    8.92979292529905
H         6.71173366526329    7.27805736700976    6.07891173759295
H         8.33646767512636    8.99583397345759    0.61333577350704
H         8.32042313699247   11.82229194857201    7.11018532708318
H         4.80909212899625   16.15159024436894    0.57295676886160
H         7.51844775746902    7.81049048490341    8.34597535623220
H         4.52602514377611   10.92711321087577    0.55114820169809
H         6.16682786770749    9.41092107496257   -0.48765712429927
H         8.31868189505534   10.08644374102114    8.86881975532044

