55
CSD_code = NODKOI | q = 0 | S = 0 | Stoichiometry = C26H22FeN2O2P2 | MND = 4
Fe        3.15231722720028    6.76640923941628    4.49600774260385
P         2.95810945664752    4.78064908081884    5.37775163058497
P         4.00106731669068    5.85300872447943    2.70460321326079
C         3.80061193227128    4.03774778493961    2.89265959507918
O         5.10234761558258    7.99032095268249    6.07324525353346
C         1.43531695924546    4.00343415591821    6.01205836679037
C         3.17858510335506    6.11851774305016    1.10344487778790
C         5.49335558077494    4.05835693879886    6.27248738968303
O         0.68116263599512    7.64351398504146    3.53976087290458
C         4.17368579585907    4.29420983575908    6.64677519281964
N         1.72449827810306    7.29595293702197    3.98211866752902
C         5.76093586525879    5.83413252674822    2.21445574753728
C         3.37750148532600    3.56981552050341    4.06393471904246
C         1.43569579269349    2.69798763257205    6.49821948699327
C         4.78817752282523    4.03911675603950    8.95371723058416
C         0.25321626548901    4.73255504305752    5.98551091720010
C         1.33383526562661    5.70179051265948   -0.37607021052070
C         6.16895580153691    5.23578731368686    1.02464958221310
C         3.82779186744910    4.30240436623002    7.99421402256347
C         3.63783436723678    7.11554229472631    0.24760904963237
C         1.80729424488960    6.67747715923847   -1.23832840521158
C         6.70683136366708    6.37444208338580    3.07677270405175
N         4.26202186249178    7.50951348887418    5.38877904075328
C         2.01166454820043    5.42584133820278    0.79703518015238
C         8.05120797799958    6.32265188778627    2.75195821533609
C        -0.92411313864297    4.16143142697950    6.43658045059240
C         6.09594068916505    3.78044128585029    8.57657760501611
C         2.95591430665221    7.38659697941988   -0.92368425697907
C         6.44816525257010    3.79450851494546    7.23624201133887
C         7.51240138548435    5.18915249698705    0.70443688360461
C        -0.92196760485319    2.86199229245292    6.91505357426114
C         8.45392407864648    5.73060208006307    1.56670512177052
C         0.25756639456895    2.13288605480639    6.94735144540986
H         4.07904220190392    3.39849504907483    2.06022702239715
H         3.25820482761642    2.51162765437641    4.27379219305775
H         2.36003003875331    2.13675099913810    6.53752565299695
H         2.80741920486728    4.51747583830862    8.28342309898590
H         4.52972631952421    7.67107124785616    0.50841682391941
H         0.26944233473561    5.74883720573556    5.61380756659616
H         5.76602501391680    4.09035887503056    5.22401788023289
H         1.63828112801844    4.67771111477420    1.48536120053301
H        -1.84185016119432    4.73026823190689    6.41547743703816
H         3.31562930386917    8.15677589950608   -1.59027134774306
H         0.25690704133417    1.12121183357786    7.32673292032526
H        -1.83956690644634    2.41497107447830    7.26816625421590
H         0.43013441360112    5.16041705071195   -0.61532000511226
H         7.82833146371915    4.72947361934013   -0.22090744239576
H         1.27439048112877    6.89312988289307   -2.15258610336881
H         9.50255948678534    5.69178376160890    1.31100567745584
H         7.47085926315220    3.60686270754490    6.94289985985404
H         6.38220324425345    6.83844401491419    3.99785088920120
H         5.43248604770256    4.82187402548280    0.34878054623572
H         4.51746353937491    4.04317904932485    9.99945547109302
H         6.84423465165300    3.57824624526078    9.32853540675752
H         8.78329356572630    6.74634418605436    3.42347607981068

