70
CSD_code = NODLEA | q = 0 | S = 0 | Stoichiometry = C28H39ClOTi | MND = 12
Ti        0.94916901199890    3.62068423416672    5.68203513604219
Cl        2.83219871637626    3.52829234896710    4.42799172568232
O         1.72098044647205    4.21957860204072    7.10475978338330
C         1.10955727089312    1.79217771185016    7.14919381502332
C         1.59675405300157    1.30617034624723    5.91467080630527
C         0.52433289167354    1.35510989653114    4.97765993359946
C        -0.63776949221617    1.80409860334178    5.64972736530636
C        -0.25945756910260    2.14746921500654    6.97992014144165
C         2.90221856795773    0.61563852146934    5.66326107603760
H         3.48074437580515    1.12668815910441    4.89336688598860
H         2.70991647081638   -0.40216574767359    5.31805161457430
H         3.49790704968321    0.56509699737718    6.57200058243451
C         0.62383209825446    0.83573901956063    3.57402670155304
H        -0.20353692781838    1.18493787347381    2.95765150351383
H         0.61432866933688   -0.25703610193932    3.56972418386734
H         1.55840802713012    1.16771340535122    3.11998466581592
C        -2.05082346225507    1.62052444313885    5.17306081003305
H        -2.69594017837626    2.46182151631240    5.42091851277901
H        -2.46829600771019    0.73103224581461    5.65236493829466
H        -2.08888755616159    1.46120513435054    4.09758055548730
C        -1.17766072763573    2.56410473737863    8.09452715385128
H        -0.85791988194407    3.51087264732942    8.53524045540289
H        -1.17931339477822    1.80721023654400    8.88236524027296
H        -2.19911260598661    2.67406494874013    7.73643637584560
C         1.92220646410800    2.16495975988886    8.34597865086610
H         2.75947798507892    1.48138340274975    8.49281163767922
H         1.29831368050598    2.14756242776914    9.24221213762934
C         2.46568900426734    3.62502917918661    8.11104139433925
C         2.34093106928584    4.44781914941127    9.40551222488222
H         2.72781210682766    5.45164183902728    9.24137087928893
H         2.90667415468809    3.97752888291514   10.20552049878057
H         1.29594100197200    4.51952220969888    9.70413984516869
C         3.93955319136401    3.57824799826063    7.67562278239870
H         4.02767327702783    3.01668624053354    6.74729378488722
H         4.55404654668861    3.11958434481333    8.44656996219086
H         4.29167600371253    4.59247209957537    7.49363407485370
C        -0.10539207259328    5.77124534013744    5.89942618971857
C        -1.06813094015966    4.80789479751052    5.51902537663745
H        -1.98573495958971    4.59568095480764    6.04811361541293
C        -0.76226878502907    4.35237620974003    4.21122519742963
H        -1.39742013557845    3.74346112335795    3.58281847517799
C         0.41051972634144    4.99045878533864    3.80054956309796
H         0.87131744319294    4.91882579237607    2.82314550241077
C         0.83820954079399    5.84026607042352    4.85028025841673
H         1.69454181114383    6.50022439235773    4.79287681643059
C        -0.09391211912188    6.59074374086545    7.16898601030988
H         0.53299124279627    6.06267277616750    7.90194302544927
C         0.51895661606921    7.98501577961449    6.95630633467194
H         1.52115191110406    7.87821876645549    6.52964899716779
C         0.63416143577005    8.70224042535028    8.30139471442179
H         1.27447806132483    8.12861593992387    8.97634334711951
H         1.09460622078057    9.68264251510057    8.15741708860850
C        -0.75404986141519    8.86662112625170    8.91563327015166
H        -0.67049348960061    9.37808011108622    9.88172561479371
C        -1.37846092668423    7.48819606694068    9.12056446141204
H        -2.36941954220462    7.59228417639998    9.56979082335400
H        -0.76163019328835    6.90011127676818    9.80543464790443
C        -1.49481894497016    6.77120978131697    7.77503338578543
H        -1.95346085664738    5.79019280333285    7.94221987429973
C        -0.35986657902855    8.80664873307552    6.01454729940006
H        -0.44187755633657    8.30106477858291    5.05005997228262
H         0.09344436713938    9.78645075568065    5.84575865260271
C        -1.63234835791035    9.69094521141380    7.97575920707330
H        -1.19555725536860   10.68214082190114    7.83323147096045
H        -2.62480549738556    9.82281274714429    8.41378720093122
C        -2.37392633474866    7.59640635276896    6.83561036141267
H        -3.37458424547124    7.70123947794544    7.26310941448688
H        -2.46790497371243    7.09137831778750    5.87230865548999
C        -1.74758665709093    8.97426693901637    6.63109997602253
H        -2.37845242346535    9.56470058474268    5.95659736365357

