39
CSD_code = NODLUP | q = 0 | S = 0 | Stoichiometry = C19H13I2N3OPt | MND = 6
Pt        3.47406947402530   11.56184898444766   14.66184516022657
I         4.60125055876018   13.19281733129229   16.44397360582576
I         2.51345985972487    9.92512832174131   12.78634948439860
C         1.12650881101373   11.29366622609031   16.26905631170743
C         2.03421796501162   10.26830325090181   16.66231023890613
N         1.52998356660757   12.13562966812311   15.25148838525758
N         3.24395312929320   10.20440768097536   16.00742236372879
N         4.14267584501086    9.36234125034680   16.24438917639607
O         3.53232876740432   13.09705009499640   13.25331694206545
C         2.56327064060858   13.89750546395742   13.01879224940961
C         1.26797174851178   13.92744782081427   13.65898479850138
C         0.32639109567977   14.89678356556419   13.22166147523780
H        -0.64136387539771   14.90630263519975   13.70393743400420
C         2.79885152597751   14.86479896310040   11.99887576365612
H         3.77204356763704   14.83326044370914   11.53277653898586
C         0.59924946911578   15.79766565990214   12.23803012752942
H        -0.14071129498471   16.52042635360142   11.93256154407358
C         1.86074611635471   15.77710262849712   11.62134064729007
H         2.08664087544586   16.48898238012625   10.84134108526817
C        -0.09218900374516   11.37551628723555   16.94920727028307
H        -0.80141624668852   12.14721508581039   16.69543460422388
C         0.49048141938136    9.47567348236364   18.31946876774668
H         0.23202509777545    8.78471978026201   19.10583681773339
C         1.70422766899137    9.36944023936569   17.67927284339564
H         2.42270147648025    8.60782635622834   17.93974087881022
C        -0.39967193753781   10.48094382559655   17.95324211617637
H        -1.34787598271617   10.56604070271433   18.46182349906031
C         0.82544536947045   13.07751444067158   14.69563904486458
H        -0.19846283143719   13.24937643877949   15.03081567646300
C         5.24722723588447    9.53058477293939   15.45261756565644
C         5.24947196463399   10.58908662192401   14.50650915763805
C         6.35225343298559    8.67974479058570   15.56955555984715
H         6.32456061904339    7.88262820232356   16.29499215601171
C         7.44136032822769    9.92490453708865   13.82490466643563
H         8.30243209082304   10.07630194868599   13.19135942383647
C         6.34876999420413   10.77469231873134   13.69938842351201
H         6.36012472127983   11.57749996801572   12.97507727719314
C         7.44082647051077    8.88718303309887   14.75154098048057
H         8.30107026663046    8.23983844419218   14.82751993816289

