122
CSD_code = NODLAW | q = 0 | S = 0 | Stoichiometry = C49H71PTi | MND = 12
Ti        6.97213040671475   12.36362463370396    1.27961773741111
P         4.00724124652270   11.26512036931435    2.62636447429501
C         8.62740568042443   11.06466866003517    2.35175883152184
C         9.31066415801877   12.06352516747886    1.61665122065194
H        10.03876339124183   12.75391129507453    2.02080772375706
C         9.07824363068129   11.85175185936016    0.24336630451748
H         9.56695161126813   12.37308181189921   -0.56704765543517
C         8.21669257819170   10.75519724475455    0.11012307202054
H         7.92059170166397   10.28786641469793   -0.82277462729840
C         7.93453766536592   10.26598711334271    1.40855597705559
H         7.40233404535233    9.34732261343779    1.61326886736225
C         8.71480450850187   10.87828130619794    3.85392790100924
H         8.12079571097894   11.67335653908832    4.33875397307392
C         8.16531834872530    9.52645201071950    4.33634273259320
H         7.14194519262891    9.39667232643643    3.96196316947039
C         8.13537438625443    9.51584347157708    5.86561809101875
H         7.49509789608787   10.32252433948353    6.23364645176281
H         7.71737938795997    8.57027028432702    6.22077958053516
C         9.55376118752212    9.68969486014134    6.40715430172376
H         9.52848611761251    9.68819480542837    7.50319686544299
C        10.12980773145846   11.01391947036556    5.91059061979895
H        11.14371388024149   11.14403747242413    6.29646598029143
H         9.52400093160720   11.84662284174066    6.27770414346084
C        10.15419002858641   11.02091547550154    4.38195811820085
H        10.57604833172917   11.97194165471413    4.04157768281556
C         9.04276006268441    8.37295499675981    3.84905382790684
H         9.07440520970470    8.35120842272228    2.75919355369144
H         8.62392966584983    7.42396788658166    4.19457976918066
C        10.43466690326356    8.54298926452954    5.91438115291923
H        10.04377842315362    7.58918537331136    6.27717907689466
H        11.44819090682945    8.65909018679808    6.30547211127044
C        11.02206983279978    9.87138474324302    3.87602588180602
H        11.03254079838826    9.87402632637044    2.78363815718643
H        12.04917039249752   10.00261443075128    4.22504910918989
C        10.46080209906264    8.54604059216605    4.38681428831771
H        11.08887905887870    7.72121375398631    4.03130732979708
C         6.90011848562904   14.17806979060441    0.02747153152634
C         5.84041787051001   13.25376416123190   -0.36820350614736
H         4.82307415215640   13.31346029648925    0.01582547113438
C         6.10930715581762   12.87801024755006   -1.70774331486701
H         5.47363141513175   12.25652081835941   -2.32178243538047
C         7.28120270999088   13.49229177855629   -2.11304525405520
H         7.74947232364019   13.38524119086341   -3.07793048319910
C         7.78252152632298   14.26133668262503   -1.05328329619805
H         8.68783655523843   14.84691391777881   -1.09434175024623
C         7.08937091802361   14.47017638658885    1.45277205160628
C         8.36614230316397   15.21606456785490    1.82281343643505
H         9.22857120020191   14.77376621634475    1.30996032177272
C         8.57465986488768   15.14147801564826    3.33904694971091
H         8.63115959482192   14.09084478294412    3.65125532230812
H         9.51134223841781   15.63401677496457    3.61514964779791
C         7.40249809361200   15.81656123533007    4.04940509604661
H         7.55469050630919   15.76692526038340    5.13492741311186
C         6.11069312118404   15.09166253906649    3.67926541892310
H         6.16296979702510   14.04295175147001    3.99571480166666
H         5.26418096664744   15.56583149620799    4.18449625876464
C         5.91157164753047   15.14540036405696    2.16228045840701
H         4.97481359537609   14.63700619350294    1.90294304372148
C         8.27081683764889   16.68955707105255    1.40052370285705
H         9.20000365256880   17.20778274474955    1.65476109638636
H         8.13176211603208   16.75231384647329    0.31986911727133
C         7.30326509890820   17.27985921416688    3.61937554041092
H         6.46988198757662   17.76240173197275    4.13617906637984
H         8.21816097711757   17.81213086395799    3.89147065056722
C         5.81240359521697   16.61371973292779    1.72441269850992
H         5.66839975529912   16.65973143596639    0.64208518377030
H         4.95008298250880   17.08558874268476    2.20444602595908
C         7.09290457097634   17.35035588012979    2.10776217812268
H         7.01979662090370   18.40028767131361    1.79859354131114
C         5.58814337623798   11.88125383133442    2.61560895245020
H         6.03607769455336   11.55509647968407    3.56635232936720
C         3.52298841381613   10.56702088268053    4.29158451689479
H         4.18339348788698    9.69075999438277    4.37001008864239
C         3.87624203016416   11.48154221807183    5.46315750144404
H         4.89948796303144   11.84885277362934    5.36099743515786
H         3.21472649191197   12.34721837487836    5.48750692839895
C         3.72773801668456   10.70820291659371    6.77206667730996
H         4.42251795824617    9.86460052026692    6.77930834032528
H         3.97977900975173   11.35564082526168    7.61435689268581
C         2.29905067178883   10.19251193431518    6.92350473578586
H         2.20558991992700    9.61898794652597    7.84781505855741
H         1.61471834213157   11.04193909364426    6.98792972717201
C         1.91177942971648    9.32145961734258    5.73159654641505
H         0.87646219688731    8.98925276104635    5.83502892845621
H         2.54668428468813    8.43201580069906    5.71184928352052
C         2.07873359055437   10.09329574545351    4.42284739808103
H         1.40704105434133   10.95316321898074    4.43256626815989
H         1.80298880208779    9.45477528846635    3.58193057487966
C         3.65835277113532    9.81153257386087    1.44640959954898
H         2.58628904170576    9.60484126622712    1.38136613359595
C         4.38542083132458    8.56179978185195    1.93439489848664
H         5.41953851855923    8.83445182620704    2.16725361011864
H         3.92045124598383    8.18634319233728    2.84875385461324
C         4.36876144918317    7.44535188807687    0.89213798581005
H         4.93699768673034    6.59077427173735    1.26673132295669
H         3.33813937459284    7.11595853795001    0.73477233655182
C         4.94942828715451    7.92185244847748   -0.43360289943827
H         4.92250869301885    7.11173882679909   -1.16509335550028
H         5.99236486816045    8.21475614426700   -0.29390037117952
C         4.15234827246630    9.11702443483397   -0.94036814401794
H         3.11681885204987    8.81320147280753   -1.11847588544536
H         4.56467480083096    9.47066992192642   -1.88751022095267
C         4.18828983116776   10.24767381900648    0.08313639081267
H         3.60157224324942   11.09125690819722   -0.29070168986692
H         5.22977475504304   10.59358778020269    0.21293006665623
C         2.73658585103399   12.52957768226750    2.04650028183524
H         3.27717046258596   13.01215670877924    1.21827890374118
C         1.37761025691187   12.07719732795423    1.51781998831975
H         1.48880359387256   11.33483622373398    0.72677900345704
H         0.78568623880657   11.63359332903174    2.31987149619160
C         0.63135549904757   13.28562887829155    0.94712401721952
H         1.19219385403359   13.68419330313515    0.09798594360526
H        -0.34798402754834   12.96979164975751    0.58054724273331
C         0.46230904550557   14.38174220229090    1.99526825734802
H        -0.04470908193691   15.24100152036023    1.55199284493412
H        -0.16374222645390   14.01012402995861    2.81056280671127
C         1.81915488403759   14.80319124271162    2.55253323740552
H         1.68510823365868   15.56052137948128    3.32782132059322
H         2.42340590206804   15.24314570949129    1.75591670077175
C         2.53825358282934   13.58763694057152    3.12989187120671
H         1.92626877752139   13.17716252572492    3.93581827380572
H         3.51065755242342   13.87091060618886    3.54049421422953

