56
CSD_code = NODMEB | q = 1 | S = 0 | Stoichiometry = C24H25ClN3RuS2(1+) | MND = 9
Ru       10.00463448604854    8.16211602820873    2.30816155475913
Cl       10.62269207658423    8.60415857054143    0.10303510309456
S        11.98506383658046    4.01776097006420    2.12951484869644
S        12.14159748140514    8.89733264500800    2.95632885262376
N        14.38703711875292    7.84563755774391    3.88027416277191
H        14.90121647491689    7.02730270392704    4.18962825976028
N        12.87978891290569    6.31728401538621    3.10709099709543
H        13.58522368953113    5.64362729580085    3.39008641180146
C        15.02941742951417    9.05548610428754    4.22712676972566
N        10.77602335924673    6.30508718148351    1.92734006910559
C        11.84742005124705    5.74020982444248    2.41164064061328
C        14.86565539577918   10.23660047112189    3.51450969607587
H        14.22497906885927   10.27260939786718    2.65046362488808
C        13.18813520942396    7.63788667388459    3.31750433799439
C         9.86841654297152    3.06544863750611    0.52988666130923
H        10.25338697080482    2.05945457925424    0.56485025300972
C        10.02611806237610    5.40844370939374    1.18703789048687
C        10.50766920574447    4.08905584519971    1.20750877763929
C         8.91627553072103    5.71392286449547    0.40235022667836
H         8.60593505211400    6.74372834944793    0.29332702497554
C         8.68985327236097    7.73364612101251    4.20996175181553
H         8.83000693097345    7.03450632480402    5.02684006297182
C         8.74264589455431    3.38181113880901   -0.20622387886914
H         8.22963415297078    2.60475333204840   -0.74984376261220
C        15.91025529842547    9.01082875015239    5.30580237269336
H        16.05448366511629    8.08611010808672    5.84633659584624
C        15.56026106428282   11.36859987405341    3.90439529622191
H        15.43361919200621   12.28230821198324    3.34546038164230
C         9.02095979044918    9.98525929670146    3.27468627836994
C         7.79290720464833    7.39774326390300    3.15896188183115
C        16.41712716850278   11.33265449930889    4.99129609315219
H        16.95284391601433   12.21999944273956    5.28884186446225
C        10.17719345370926   11.89073436047996    2.10321351411931
H        10.83421936100351   11.13622952181490    1.66859334566797
H         9.40678466166788   12.13708188354374    1.37745393704308
H        10.75964293256449   12.78811905889748    2.29107737628339
C         7.04114569076237    6.10464583495049    3.19589119579896
H         7.65302645929981    5.30012657868130    3.59931237710806
H         6.17312939158013    6.22033239056730    3.84720922614241
H         6.68783639911115    5.81914398961309    2.20819577593595
C         8.21547888872613    9.60675122115463    2.18463881186352
H         7.98990147751433   10.32761842103090    1.40721141125608
C         8.28666051163887    4.69559658873027   -0.28388260099675
H         7.43505039207481    4.92329804033296   -0.90552006703644
C         9.24866203517961    9.01658277064297    4.28852085733498
H         9.82679711424993    9.29600395998870    5.16416720144108
C        16.59540991476318   10.14801807909299    5.68804569294164
H        17.27148930058766   10.10705912547091    6.52751879687549
C         7.56858812041909    8.34716572697523    2.15297470910503
H         6.84535502415320    8.14182744762671    1.37202277439603
C         9.56899361074583   11.38504220903326    3.41306131003725
H        10.35889139932565   11.36600854821840    4.17338506846071
C         8.45012390109697   12.31543871213876    3.89513428712363
H         8.04240995575672   11.97299575084686    4.84382126735086
H         8.84140266345952   13.31966015376915    4.03027968201036
H         7.64392383477252   12.35544583771295    3.16629294918925

