92
CSD_code = NODNOM | q = 0 | S = 0 | Stoichiometry = C38H42IrN5O6 | MND = 6
Ir        0.06025523856990    7.10819556104422    6.59039593901820
O         3.13962143208426    4.36482454008046   10.08493655512281
O         5.14225640794465    5.84533827200984    6.23097841767481
O         2.10952949145098   11.88729298110570    8.06384003576029
O        -1.21417425894358   10.12919078520935   10.68673766702726
O        -1.68355004456132    7.84957054465655    5.49146863853988
O        -3.27224961745767    7.22338980717903    4.06616109085818
N         1.38542211096623    7.56286642499926    5.16173502593749
N         4.13864351452105    5.14589518314311    8.16152916632507
N        -1.23904457786852    6.74248943226798    8.08725470955635
N         0.41573589619295   11.00295685825298    9.34923954858557
N        -0.51883130389428    5.40250494270870    5.35472195476160
C         1.70484964554593    6.29764947136400    7.40168417625870
C         1.83238630171107    5.60988869885862    8.59597599818187
H         1.01391787237960    5.49847076023840    9.28872389642700
C         3.06318218565656    5.04609054536834    8.93389281455213
C         4.04626765101354    5.78726509456219    7.00618894719983
C         2.85085572289435    6.38157970222776    6.56514705308992
C         2.65160974882849    7.10308680307295    5.32454153767284
C         3.61823444458562    7.34792591224580    4.34652021087840
H         4.61505877192957    6.96985409456270    4.48830712740891
C         3.28541278547463    8.07043436102933    3.21841233350492
H         4.02609624586067    8.26554506751549    2.45724198321102
C         1.98815290356711    8.54735668606209    3.07978529797243
H         1.68990483239512    9.12293053874132    2.21856685350600
C         1.07552835671607    8.26908686250164    4.07828682695359
H         0.05650836582024    8.62668156004475    4.01760115213316
C         0.38036837087628    8.74794653103845    7.70167919252145
C         1.26573584790689    9.78518563161620    7.47437040247781
H         1.97917417321219    9.77790119447740    6.66631708166295
C         1.24128867594677   10.89856158952717    8.31528720369600
C        -0.42577957779019   10.01385580665472    9.60605235501120
C        -0.50359279717277    8.85960809480576    8.80449674274216
C        -1.41078618597510    7.74693116909103    8.98315395299980
C        -2.39993057786841    7.65389539111246    9.96709600236976
H        -2.52518988691945    8.46743548432686   10.65886342328439
C        -3.20326282319531    6.53574952394554   10.03547008788780
H        -3.97448429358035    6.45886110475233   10.78712922341201
C        -3.00209975632173    5.50923658795721    9.12164378056430
H        -3.60107760362554    4.61295715271450    9.13998440739841
C        -2.01264221205387    5.66332205753769    8.17203708195169
H        -1.83293761123852    4.87676999001642    7.45137168794748
C         4.40112580560348    3.81185150756070   10.46667532216073
H         4.91489073420996    3.46522781888121    9.56145907050885
C         5.25107645280672    4.87531088471428   11.15633752956346
H         6.21811021489775    4.46228714838629   11.42908555835687
H         5.40184291156297    5.71668719892680   10.48576972833139
H         4.74672059875397    5.22879169950448   12.05246899435523
C         4.10553567041045    2.63781239725685   11.39159551426443
H         5.03384851853201    2.16928118302652   11.70554198078214
H         3.56756322876923    2.98773693173749   12.26860617815622
H         3.49081952473345    1.90181686406067   10.88029257247663
C         6.35933669474236    5.28405436876064    6.73279132668461
H         6.11537373106699    4.36668924454938    7.28131937528959
C         7.04275409628623    6.27274341579063    7.67231678262113
H         7.95487474942713    5.83882889534759    8.07194464098782
H         7.28607357911293    7.18759531064110    7.13700006766830
H         6.37646551868554    6.51650352475285    8.49488820545490
C         7.22575915868734    4.96359469633784    5.52113922665426
H         8.15443943545517    4.50147533774963    5.84299277042560
H         6.70367214865771    4.28276416680455    4.85387845328651
H         7.45489120136075    5.87632962807718    4.97689934938199
C         2.04833833729082   13.06528066657468    8.87171915928575
H         1.78351080743545   12.76993470364584    9.89412660770385
C         3.43515885987442   13.69515843085311    8.84334649087516
H         3.44701892372625   14.59442770981157    9.45261123583536
H         4.17258787694178   12.99526340942551    9.22698718895170
H         3.70151596776072   13.95253215585427    7.82161829307453
C         0.98493772997297   14.01418235338696    8.32514533078847
H         0.90660263061033   14.89433772779772    8.95723536638076
H         1.24501016475746   14.32075447606002    7.31480945762640
H         0.02239407023722   13.51072206182174    8.29805586032049
C        -1.09085825992569   11.30217637521869   11.49717385447825
H        -0.03042163940761   11.57718827046099   11.54318308808916
C        -1.88854299961216   12.45148816508989   10.88988320173372
H        -1.78323351455220   13.34271376376701   11.50194525375284
H        -1.52091998689868   12.66298728544272    9.89020827838548
H        -2.94029438366925   12.18248732773047   10.82787493434640
C        -1.60070633576037   10.92706395681243   12.88351780239269
H        -1.49212995086991   11.77091601753022   13.55868177539136
H        -2.65036072361982   10.64948533703236   12.83025289731165
H        -1.03755433839003   10.08400407586093   13.27529788376816
C         0.07509450444499    4.21713758236589    5.25870429286117
H         0.94556901454666    4.06834970966369    5.88395921051491
C        -0.38486884946849    3.21710291599277    4.42164110549554
H         0.13004273733039    2.26996716470070    4.37900879949898
C        -1.51348981806984    3.45701805821934    3.64828260705827
H        -1.89866243973938    2.69632000632426    2.98531624285296
C        -2.12760298773274    4.69096025028372    3.74684313568724
H        -3.00647994995249    4.95681802087833    3.18004211501113
C        -1.59978579060000    5.64122106582611    4.61182501834277
C        -2.26390749606113    7.03393993212627    4.72907328062167

