37
CSD_code = NODNEB | q = 0 | S = 0 | Stoichiometry = C13H17F3O3Pt | MND = 6
Pt        1.96342389415276    3.61955692480108    8.83011627153509
O         0.89870318306678    5.05661395006558    7.45869795903788
O         3.09022498513549    5.46659813636400    9.40582905901692
C         1.01921519124020    6.30146462722049    7.49325255880300
C         1.84264781121838    7.11940126974503    8.24428979450928
H         1.75571192069044    8.18134744255376    8.08700771100273
C         2.80009581666331    6.66220024358827    9.18463351486158
C         0.11942853149358    7.07700086190880    6.50288832776257
C         3.56366031238866    7.69725660056945    9.93313503570264
C         3.00393410238647    8.92055974788241   10.29214087442289
H         1.97842846800197    9.14477616420246   10.04053885440097
C         3.74924856749656    9.84065917325347   11.00621530557143
H         3.30668874422538   10.78501337730816   11.28669742186334
C         5.05690401512743    9.55534661842634   11.36420627068435
H         5.63647813521962   10.28086416414420   11.91546845378942
C         5.61568003011540    8.33449946222489   11.02308556076835
H         6.63132291515250    8.10426392125659   11.30904890350056
C         4.87057004094124    7.40765103846825   10.32018591014987
H         5.29181069059284    6.44806741950709   10.05810764778953
F        -0.58663612422818    8.05158762167592    7.10071142389940
F        -0.75366093253560    6.28864633923836    5.87379858473660
F         0.85694664615470    7.67977758238821    5.54513555205650
C         0.95552341181212    2.00013310803744    8.12972363898031
H         1.63999493001673    1.43234474991580    7.49723801194325
H         0.14309017237720    2.39516079055973    7.51780792911759
H         0.53983512787474    1.33558681551776    8.88281574749943
C         3.14301138815346    2.41498125981282    9.96279410313404
H         3.63983109620757    3.05228112694272   10.69540680891759
H         3.89042613331689    1.99207944831458    9.28876602901383
H         2.63711049701217    1.60459960446521   10.48130552836576
C         0.64552539037945    3.82554874157050   10.36406630655614
H         0.43006491377186    2.91063695799683   10.91098364156611
H        -0.27725623547090    4.21437291565339    9.92969510255176
H         1.06811666626349    4.56369462197941   11.04809802766312
O         3.43707578543781    3.64922257669816    6.96198260621790
H         3.99050715982768    4.40554995801272    7.18546388175045
H         2.81141661832032    3.93565463772889    6.28596164085571

