67
CSD_code = NODNOL | q = 0 | S = 0 | Stoichiometry = C24H30CrN8O4 | MND = 6
Cr        7.64774222246485   -2.26408268690927    4.85337888140099
O         8.32035520263293   -0.37084805663508    4.49470868027145
O         7.93612455243297    1.83115170516117    4.50888340198408
N         5.91102265441284   -1.67988427305181    4.02166689263594
N         5.46441926891815   -0.44793859049671    4.31755433479205
N         6.86847659349477   -1.53940590724586    6.56061189586108
N         6.29544073463445   -0.32520580277962    6.51503736079399
C         6.17840361833031    0.36540584719180    5.26145484106864
H         5.65218267782835    1.31064609876049    5.40772468896979
C         7.64430112450696    0.66389496318132    4.68921722401792
C         5.17858303891414   -3.57966033824546    2.61752289867234
H         5.89147115196714   -3.61674532926156    1.79384741850535
H         4.21392621373891   -3.92685309228075    2.25491737236914
H         5.52823576652254   -4.24343405633570    3.40483893425217
C         5.05076758176530   -2.19826845823655    3.15155750788781
C         4.04663849680889   -1.26041792448042    2.86863949191539
H         3.21869773456827   -1.38502285843045    2.20088617041951
C         4.33668276249396   -0.14607115473393    3.62618476612988
C         3.64002381107721    1.16103758348472    3.73077451083150
H         3.26767622072024    1.32806630087539    4.74218964494589
H         2.79528512419616    1.17354778777341    3.04809193983953
H         4.31115347507287    1.97945127399262    3.47107648607704
C         7.31089826592081   -3.26670367829444    8.27470448991662
H         7.07868346779885   -4.01511768727718    7.52111874545541
H         6.83666060130994   -3.54141418748327    9.21357836100131
H         8.39013215888063   -3.25187747361081    8.42391036212189
C         6.81495035209910   -1.93880243368661    7.82692686906826
C         6.21563827343514   -0.94036148327619    8.60907650879123
H         6.03922353664229   -0.96850927617574    9.66500853257296
C         5.89475171134704    0.08435929898361    7.74491828470041
C         5.25806493700094    1.40134920284353    7.99984303367519
H         5.90505856202530    2.21440561130885    7.67124273795031
H         5.07423724761017    1.51141747955381    9.06468519496293
H         4.30533229197822    1.48549585656241    7.47568280362768
O         6.97503336975612   -4.15732696617328    5.21180592123353
O         7.35926634281921   -6.35932805799037    5.19766388002385
N         9.38447251502514   -2.84830016039519    5.68505995462083
N         9.83106626521415   -4.08024565075251    5.38915445720834
N         8.42698062124115   -2.98875012817421    3.14612803707232
N         8.99999942651120   -4.20295917686581    3.19168645562726
C         9.11706072087081   -4.89357708506559    4.44527314179643
H         9.64326902920814   -5.83882044431605    4.29898363549782
C         7.65130567597825   -5.19204977946842    5.01789135479299
C        10.11692184368479   -0.94854414702998    7.08921620670126
H         9.40403392297916   -0.91146390704201    7.91289025319178
H        11.08157875797294   -0.60135204782647    7.45182051122759
H         9.76726326434924   -0.28476620393238    6.30190540186066
C        10.24473341743930   -2.32993058679378    6.55516781310198
C        11.24885729089313   -3.26779314870248    6.83807006017721
H        12.07679951829950   -3.14320421389048    7.50582449599594
C        10.95880137580612   -4.38213149512568    6.08051682066508
C        11.65544422357114   -5.68924753729588    5.97591552242141
H        12.02778703140866   -5.85626963487409    4.96449768164358
H        12.50018437010500   -5.70177357832909    6.65859614653656
H        10.98430474654575   -6.50765501404234    6.23560789818893
C         7.98458439944839   -1.26142246427039    1.43205825218479
H         8.21682525847458   -0.51302066519098    2.18564832232593
H         8.45881801280891   -0.98671194378922    0.49318248254008
H         6.90534844198878   -1.27622422763981    1.28286097453804
C         8.48050909493024   -2.58934005990498    1.87981530349438
C         9.07980217134059   -3.58777932706595    1.09765123542909
H         9.25621984019247   -3.55961976000987    0.04172007940861
C         9.40067951905626   -4.61251296554911    1.96179801562664
C        10.03736088090857   -5.92950272945167    1.70685619085322
H         9.39036298045399   -6.74256281331570    2.03543869362985
H        10.22119425158391   -6.03955462882325    0.64201374885408
H        10.99008998558393   -6.01366371164886    2.23101978404430

