61
CSD_code = NODNIE | q = 0 | S = 0 | Stoichiometry = C29H26AuClN2O2 | MND = 2
Au        5.88355349168720    8.90124999013200    1.69946666379179
Cl        6.68668153557364    9.05946123261091   -0.39763902433932
O         3.41323549950641   10.42029595290525    2.13412232036913
O         7.51521075178860    7.21692658608957    3.46490874754434
N         3.92856729802757    8.42742691710819    3.89242874288379
N         5.86477516085752    8.99064514893885    4.67217448892915
C         5.17224746934220    8.76257130911171    3.55964036065124
C         3.75067068231238    8.27166502605465    5.34072833498526
C         5.03101374760727    8.94886899307116    5.87907402803386
C         3.68167066051502    6.82155711202772    5.74874023078273
C         4.61917981931780    5.91677780636029    5.26035275090276
C         4.57298381363432    4.59143647307670    5.65252900982542
C         3.59829145041991    4.15921816712747    6.53702590239808
C         2.66809640106473    5.05784976034193    7.03066837086399
C         2.70962689178152    6.38453002556225    6.63854779929734
C         4.74151430073740   10.32896627900872    6.41340686034189
C         4.31708845989059   11.33379290715979    5.54956053451019
C         4.02778108607148   12.59365939309238    6.04103764500498
C         4.15315822382010   12.86014940996542    7.39472370911638
C         4.56854257009238   11.86111782673861    8.25838688342700
C         4.86123774582443   10.59967580734209    7.76988066953286
C         2.85347940685307    8.30097615265361    2.99513868230617
C         2.02330607362523    7.19197245729808    3.03676487326025
C         0.96705600869576    7.06941415020036    2.15065244575856
C         0.74394657452243    8.05808669173873    1.21197490882687
C         1.55396192991856    9.18056096123629    1.16811415346355
C         2.60392074459772    9.32722681123757    2.06415090229250
C         3.32950277515919   11.39173504975211    1.11378211573951
C         7.25644134778566    9.18114088041579    4.73789023909428
C         7.79297559077055   10.23791804204454    5.45634131260873
C         9.16316842850033   10.42400442886325    5.51758974293668
C        10.00182290695194    9.55238911754393    4.85026678768603
C         9.48237162100718    8.48231768403583    4.14093731937525
C         8.11144917188808    8.27118756724495    4.08750360681857
C         8.30248635656840    6.38160210036171    2.64366072589202
H         2.84850816296436    8.80159204121152    5.66386865489470
H         5.51761358057374    8.33771529947460    6.64641940262911
H         5.37802532179590    6.24829162864187    4.56597525023099
H         5.30018797814502    3.89347184355624    5.26549371425260
H         3.56322167049446    3.12359401384683    6.84028398571949
H         1.90650514495806    4.72608374648903    7.72053574866435
H         1.98150454586821    7.08586472870560    7.02104062532687
H         4.22346082380466   11.13215811058132    4.49197126449918
H         3.70420612032477   13.37045794008941    5.36453653572184
H         3.92845738267535   13.84510802132137    7.77561790644399
H         4.66784010155995   12.06378482646000    9.31435658311730
H         5.18892954261667    9.82024324307454    8.44323739113017
H         2.21691605574025    6.41521990861412    3.76003813393020
H         0.33218663004365    6.19824057180021    2.19033107473717
H        -0.06747587209285    7.96499182615474    0.50651542525992
H         1.35636528283836    9.94414044571697    0.43351785992593
H         3.51283833363194   10.94968775443681    0.13165563439235
H         4.11810015111880   12.10995239672721    1.33154676875614
H         2.35971509369689   11.89893480570027    1.12384198034671
H         7.12955090545086   10.92501937753510    5.95799535895747
H         9.56723188411920   11.25425723582656    6.07525652279189
H        11.07092646104868    9.69700045787365    4.87938477769093
H        10.15544942068878    7.80981608343742    3.63439596125241
H         9.04874341145243    5.83491274020642    3.22842837345139
H         7.60534255172219    5.67694820143303    2.19361497749247
H         8.79073331807164    6.95383853262679    1.85130724347392

