79
CSD_code = NODRAZ | q = 0 | S = 0 | Stoichiometry = C32H40Cl2N2P2Ru | MND = 6
Ru        3.87557942553021    5.54033884813128    3.34201367923108
Cl        1.59168352854275    5.15561704259923    2.76836326303952
Cl        6.15096143592887    6.20943418757773    3.60506706984961
P         4.24004677267927    3.29385752175966    3.35129877998714
N         4.21091455564053    5.21144072953810    1.00787878850847
C         5.68559920729343    2.41533937943526    4.04511967033560
C         6.69945547607176    3.09004392573587    4.70901605409663
H         6.64536225859402    4.16152870420248    4.82165524153128
C         7.78633081568473    2.39336011919669    5.21109493286232
H         8.56827522159970    2.92872227062218    5.72895259241956
C         7.86825906426232    1.02230350592502    5.04943602294988
H         8.71494094570895    0.47785632477780    5.44202085954784
C         6.86181633789825    0.34377621735512    4.37767959265041
H         6.92573481535925   -0.72705522175363    4.24614775669802
C         5.77554825065671    1.03398799737391    3.87780526964754
H         4.98499529889142    0.50284354831156    3.36462809200603
C         2.90701528658339    2.21164001843669    3.97107032650716
C         1.75522984919610    1.97638363747748    3.22684443498143
H         1.65320822371694    2.39146166081537    2.23620967270762
C         0.71974823492944    1.23190386360583    3.76276577114330
H        -0.17175182074068    1.05916211014427    3.17745898307460
C         0.81798034597733    0.71894811550830    5.04505563762795
H         0.00467748623709    0.14366392209786    5.46307771366168
C         1.96334207587292    0.94490659553018    5.79028240418079
H         2.04743611251033    0.54408969800347    6.79035314745146
C         2.99994121657794    1.68721698768188    5.25749340837273
H         3.90106808345381    1.85243863272143    5.83080451558816
C         4.40025286584369    2.77798978695987    1.57474523768169
H         5.46565423706734    2.66674243905361    1.35341414894183
H         3.91101477997548    1.81491909887574    1.40787562750531
C         3.76022740298016    3.84404379973133    0.69816283533786
H         3.96828607365701    3.62533765746080   -0.36335791174476
H         2.67686206674603    3.82739843716959    0.84827559826399
C         5.62041327704613    5.35837594125876    0.64626518143505
H         6.24350631625922    4.73067167839737    1.28181717780340
H         5.93535050325741    6.39016334270874    0.79783915407672
H         5.78291041955497    5.08705005857278   -0.40636498062765
C         3.41623367940534    6.10066631251099    0.15852287160495
H         2.38382684579670    6.11546486305763    0.51070447452498
H         3.42861376497202    5.75527558958101   -0.88482558864930
H         3.82808346382410    7.10632033199899    0.17724954802880
P         3.56655642956715    5.75476572703777    5.58682974243847
N         3.48537670252696    7.88917282167720    3.43818866206001
C         2.16342763315530    5.12066652730879    6.57287098509021
C         1.14981163315929    4.36683257485827    5.99999382615084
H         1.17843903271753    4.14468196566820    4.94471655077650
C         0.09526731894016    3.91491236475969    6.77622567143119
H        -0.68690914480836    3.32615978606300    6.32036602503148
C         0.04531862508541    4.21645784461128    8.12504564296979
H        -0.77618450716265    3.86308709414625    8.73140501377871
C         1.05147776206670    4.97825232827325    8.70107078381582
H         1.01270554800185    5.21905299884467    9.75396188015585
C         2.10567243918322    5.42853006241114    7.93157791646363
H         2.89637493807076    6.01225133632766    8.38378382241501
C         4.94205937478494    5.28350461524718    6.69068482509700
C         6.07724817911494    6.07720875305690    6.82110057966042
H         6.14231978971317    7.02293725980212    6.30588481113164
C         7.14332305078268    5.64649048866628    7.59037378532829
H         8.02141831549731    6.26922970671829    7.68175839367148
C         7.09258464242033    4.42074121628366    8.23222821447159
H         7.92959585940921    4.08463636946941    8.82687800182819
C         5.96431906008117    3.62672958412481    8.11026014295562
H         5.91742189032655    2.67040146138418    8.61136295486524
C         4.89720622791655    4.05466183932778    7.34381980102382
H         4.00926087519794    3.44444203975628    7.25894282372855
C         3.36885442080173    7.57043790335055    5.92092886071176
H         2.30038104550022    7.77466787517605    6.03546857020580
H         3.87453257543062    7.84861214861804    6.84915275690608
C         3.95997680056498    8.34799689463529    4.75462870488575
H         3.72937232049180    9.42111108617623    4.86957946745966
H         5.04699812969303    8.22602836168249    4.75797950661846
C         2.06369744706513    8.19988959210864    3.29197927842890
H         1.72876778678451    7.93582121236447    2.28955742670308
H         1.87976608249162    9.27062235644668    3.45870052340401
H         1.47248421707935    7.61739840293555    3.99716389595277
C         4.23585162154239    8.66230625088521    2.44680203738480
H         5.27646610394245    8.33495444221306    2.44002690126588
H         4.20455960173037    9.73474427581413    2.68543880424481
H         3.80046597008282    8.53217275161776    1.45944535464924

