65
CSD_code = NODRUT | q = 1 | S = 0 | Stoichiometry = C33H24N5O2Ru(1+) | MND = 6
Ru        6.01260227520357    1.99935498190471    8.40332151683710
O         4.40072105199158    0.98678608202723    7.56133776431696
O         2.53923336311050    1.44531805998071    6.42877827723002
N         5.30341483668932    3.44139525321455    7.18844294314261
N         4.65416399626887    2.45533246036750    9.82579750542173
N         6.30901854849640    0.40386884869101    9.58274099824916
N         7.64446980232240    2.93256161493930    9.09949277723584
N         7.30328239536789    1.37030313118554    7.03193081967125
C         3.62482520503218    1.73815128645310    6.88312224659138
C         4.20128715708278    3.13515960749954    6.62986305658878
C         5.92253412503373    4.71980059672008    6.91789544790034
C         7.21587427148062    4.50974695587918    6.16310503975009
C         7.21422668223703    3.76388669750555    4.98974905102606
C         8.38543068508204    3.58439273905524    4.27564720230641
C         9.56563690620475    4.15421825381048    4.72322715498878
C         9.57162279613648    4.90253505205740    5.88738924715032
C         8.40262385277217    5.07547023020436    6.60843181965668
C         4.35880486673392    1.34533803681188   10.54433976738673
C         3.84916194668352    3.49969077920411    9.94849845011381
C         2.71349325079876    3.49569852249241   10.75920808267801
C         2.39185629769160    2.36813918958384   11.47913334236991
C         3.23647355995400    1.24910430236637   11.39230346134508
C         3.01621657362889    0.03284746313332   12.10179487840152
C         3.87400050621619   -1.01142065438038   11.99114497772222
C         5.02610789248175   -0.93718162641416   11.15541481795576
C         5.95608744380169   -1.97973846748226   11.01252578684342
C         7.03726168021518   -1.79175487253621   10.18212667602100
C         7.17590910086600   -0.59145308661598    9.48445528205304
C         5.25439875386357    0.24275076031527   10.41708709115445
C         8.76403563917447    2.60706944137589    8.40068548853294
C         7.79140945271781    3.74082603061507   10.14249881425160
C         9.02662947632960    4.25036372384591   10.53930844810072
C        10.16881393184428    3.91888762770332    9.84171386195434
C        10.05375004608245    3.06950008765511    8.72998319721145
C        11.14853273565530    2.65666270015018    7.91488709179916
C        10.96734781772554    1.85105134506732    6.83835267632330
C         9.67254711351887    1.37785316076833    6.47574237798902
C         9.40236449897496    0.54934494446604    5.37453006100841
C         8.10107636882674    0.16036017681377    5.14031404108363
C         7.07880187048472    0.58815838065009    5.98861483151914
C         8.57738114140378    1.75964160323717    7.27498915208475
H         3.66326414217436    3.80926796942363    5.96423989772995
H         6.13464328228066    5.21711049154647    7.87082419393099
H         5.25051907119141    5.35652491398016    6.32481678477785
H         6.29108810058173    3.33271598277170    4.62762444523299
H         8.37288051719799    3.01041446839233    3.36172286601834
H        10.47626605978688    4.02496102785654    4.15916413695494
H        10.48630257475124    5.35947622331894    6.23284083731023
H         8.41018533030670    5.66990563766024    7.51120328670451
H         4.10566024242615    4.38822928597016    9.38459970356957
H         2.09448887025296    4.37724377162901   10.80244714395888
H         1.51097949971797    2.33252765172132   12.10066464194881
H         2.14464904383095   -0.03360212003938   12.73466297977317
H         3.70100123684129   -1.92711146827073   12.53538059897810
H         5.81558400149095   -2.90517920564712   11.54880672290199
H         7.77773069060972   -2.56452416205662   10.05224048272403
H         8.02738664720013   -0.44405524662835    8.83055106721445
H         6.89211301348508    3.99527651910403   10.69085569820618
H         9.07516277094382    4.90230398003267   11.39674788879232
H        11.13382133264517    4.30080935917313   10.13514002539702
H        12.13442752544166    3.00930583522909    8.17645325808306
H        11.80607244985852    1.55131152028735    6.22903084818697
H        10.20623061380925    0.22741450455507    4.73118568516789
H         7.85777505502753   -0.47731986321647    4.30572007632191
H         6.05283801197929    0.27957150289514    5.82705120614409

