94
CSD_code = NODVEJ | q = 0 | S = 0 | Stoichiometry = C32H53ClN2O5Ti | MND = 6
Ti        5.21989217167668   14.04454298173422    4.29956511135642
Cl        7.83278797733207   10.56837220390401    3.07293733018104
N         3.32978434621247   13.57384121348599    2.84845194634039
N         5.94576838787520   14.69244651396648    2.10062703230515
O         5.66274146347236   12.37414982413340    3.68573202158366
O         1.62745176842351   16.31273545904832    1.42713308535007
O         4.62665992497153   15.71607127944529    4.29334074724765
O         6.81202049183646   14.33098916069244    4.97265721879636
O         4.20915367911758   13.47500833717947    5.62626258732825
C         0.65478185005214   15.38356010021300    1.67793463562524
C        -0.57273227583299   15.35392254499072    1.02741009069705
H        -0.81032959590959   16.07867504816409    0.26471553925819
C        -1.51230647175681   14.39019240176489    1.35404627073140
H        -2.45960320908406   14.37816570271282    0.83604786898168
C        -1.24562687523324   13.46451334742802    2.34360820254075
H        -1.98454052754249   12.72547435605773    2.61281517728420
C        -0.02331475107069   13.49688450119268    2.99488481442157
H         0.17545448750756   12.79108528613920    3.78778713453427
C         0.95013923136602   14.42800028774808    2.66592103540481
C         2.28157109041382   14.46255554893831    3.38025080175450
H         2.67355346527306   15.47856340611151    3.34135676021152
H         2.14704255380249   14.18943787838006    4.43158711110508
C         1.35593324586132   17.35350705370969    0.52297638355546
H         1.19618650298835   16.97652545994552   -0.49285077057076
H         2.24105223446275   17.98793586593121    0.53364324500177
H         0.48674978128491   17.94211101619982    0.83296439868168
C         3.68391819195839   13.89508384085967    1.46711240834093
H         2.79719051591089   14.17917841300334    0.88155286023741
H         4.10110265968974   12.99430864414256    1.00565808850278
C         4.70567189102468   15.03015586577900    1.40332943921265
H         4.90623219463325   15.27431007636673    0.34286996496311
H         4.27661777422352   15.90933627223897    1.88910561586084
C         6.73749043922190   15.90082184042763    2.31522021099019
H         7.65528994805477   15.63629401381671    2.83849646783381
H         6.17213479349989   16.58644018110036    2.94508943093709
H         6.99037920761595   16.38750482078952    1.35800481811666
C         6.74472444908496   13.76918801526054    1.30232086425766
H         6.18816668869663   12.86473638300816    1.06492172726287
H         7.63038383103496   13.47755694618254    1.86455665866376
H         7.06376110609380   14.23920212304965    0.35634428545648
C         5.27344296246035   11.36367970765293    2.97571500774191
C         6.18684698529266   10.36475644873619    2.57232726350025
C         5.82662543132693    9.27099212500919    1.82036461610867
H         6.58919569875946    8.55308261986777    1.56334665923043
C         4.50906168995979    9.10219149637361    1.39994133713321
C         3.59459305281776   10.07996111662251    1.77041697166416
H         2.56197480870237    9.99710327174719    1.46747322497137
C         3.94388371585960   11.18138227103843    2.53653171980032
C         2.89427302961821   12.17745753123921    2.95349453487448
H         1.99080058953244   12.00662249775961    2.34298820652267
H         2.64186169727899   12.00479886531370    4.00615901437450
C         4.14211135389563    7.87945873461637    0.57330108712015
C         4.45881502433833    6.61444987583686    1.38311500875406
H         3.89554490397495    6.61514945630978    2.31373094246105
H         5.51575507920845    6.55639866778652    1.62581421568040
H         4.18914106204137    5.72616254197370    0.81534013816990
C         4.96245588234526    7.88169103457299   -0.72430028674446
H         4.70877740401419    7.01492429480791   -1.33127975728786
H         6.02809658638660    7.85240951493477   -0.51677967395692
H         4.75192377637046    8.78057663462598   -1.30011158937780
C         2.65777566913127    7.84614611310313    0.19938370230983
H         2.45163174446801    6.95245766305640   -0.38640957779025
H         2.38558059905514    8.71145144619241   -0.40050228398381
H         2.03235620766094    7.81744136269475    1.08835485405567
C         5.49846258427755   16.87282618173052    6.21940871051550
H         6.13122848648406   17.57075431080019    5.67216591601932
H         6.06318363806817   15.95847647522101    6.40011510247260
H         5.19988504025780   17.32553712038525    7.16289350602852
C         4.26956743353675   16.50477990338769    5.37186698391376
H         3.56418250977612   15.93565372691814    6.01586332944858
C         3.56260166873124   17.78981358109622    4.89613350904911
H         3.29189578036039   18.40950273477513    5.74739545493491
H         2.66017962351444   17.54673266286169    4.33856733126753
H         4.22949321173563   18.35477236130615    4.24638795261572
C         8.10257693853259   13.90545378508397    6.95830515772722
H         8.46892908616455   14.92937367052274    7.01232100548176
H         8.84993326282291   13.23764345786043    7.38076535641705
H         7.18778888149972   13.83081518623111    7.54302726876472
C         7.82032676814212   13.53759861070886    5.48908110435809
H         7.52041916355762   12.46933981880974    5.44397684741632
C         9.11346581274984   13.70401522672910    4.67130123262780
H         8.95393833972987   13.36243070471853    3.65120763468583
H         9.91719400489305   13.11848657165218    5.11124064960413
H         9.40273826104544   14.75392927123600    4.65589393536539
C         4.14220750801949   13.34293246477751    8.01629906490088
H         4.41574368638209   12.72340253864295    8.86736490336036
H         3.07515178899659   13.55533076767529    8.05683033604413
H         4.68332868932583   14.28644238898547    8.06518153901542
C         4.47643055885518   12.63344419590883    6.69174419974512
H         5.55144220713870   12.36044009627658    6.69976200788356
C         3.67022924839383   11.32637051062097    6.57469194269333
H         2.60417818986948   11.54992621154214    6.55252823424328
H         3.87616854351220   10.67824708923416    7.42349492012632
H         3.94696949088521   10.80619886713458    5.65858090761667

