56
CSD_code = NODXAF | q = 1 | S = 0 | Stoichiometry = C18H33ClN3Pt(1+) | MND = 6
Pt       -2.18155243828769    7.77822850021462    9.67796286826648
Cl       -2.79708665386410    9.95358179373290    9.62183740664249
N        -4.41201716976265    7.36711103289579    9.79665225725035
N        -2.86613680583786    7.61726464350282    7.51438189136858
N        -1.68040439468652    5.85148328368093    9.70816854970780
C        -5.17120009585814    7.24822250230200   11.00867145540641
C        -4.79194548507816    5.91270203181847   11.67318479692076
C        -5.42325059296272    5.81954215799052   13.05883612430400
C        -6.93901650957383    5.96564529010552   12.96865796407033
C        -7.30919430325142    7.27953809876713   12.28810098063782
C        -6.69049015007290    7.35844073154356   10.89303604354414
C        -2.04497359789862    7.78865932960654    6.34925110961235
C        -2.60174754109283    7.24374072594539    5.03221384878969
C        -1.54644830880218    7.41187904885401    3.94099228961039
C        -1.20013210029697    8.88774982245031    3.76405819658582
C        -0.71009405938659    9.48749546307704    5.07863734329914
C        -1.74068347243848    9.29153370245587    6.18457924491644
C        -4.13492425642086    7.54501579614042    7.44785944569405
C        -4.94662968240201    7.44069169697899    8.64511329374034
C        -1.73515447710521    8.02338646688380   11.68831252516023
C        -0.18781015124902    8.25721926975296    9.37409775383956
C        -1.28745830086401    4.77218890194743    9.76549115663869
C        -0.80826542413845    3.43777090270090    9.83804780811710
H        -4.81600469136351    8.05994382563220   11.65827883830550
H        -5.15670884781596    5.09567628710182   11.04547921106085
H        -3.70415296979130    5.83154233693888   11.74255933317255
H        -5.01782759131940    6.60665949777575   13.69755827411701
H        -5.16733774230278    4.85903354076000   13.50828226843764
H        -7.35279922268668    5.13070447827366   12.39908547382608
H        -7.37222914018124    5.93338842013328   13.96824333238856
H        -8.39330877861409    7.36280491064414   12.20707148379520
H        -6.95545864634931    8.11780893542148   12.89166188674901
H        -7.08343255653871    6.53995707630930   10.28442870157813
H        -6.96334212868873    8.30757669639342   10.42602977773326
H        -1.09888814185710    7.27504250105006    6.56474554946385
H        -3.49374381079589    7.79630547327988    4.73226789660713
H        -2.86755913799954    6.18949919022900    5.14733242827638
H        -0.64746114841723    6.85165008006327    4.20786190372591
H        -1.92615152974465    7.00470723241044    3.00334430161869
H        -0.43094410912898    8.99683956806240    2.99944256338018
H        -2.08539657656231    9.42927776448539    3.42482891160878
H        -0.52406673707817   10.55456766167515    4.95305086106764
H         0.23182110600515    9.01644482675444    5.36804910889207
H        -2.66844525817329    9.80766303596098    5.92934108482504
H        -1.37517995020846    9.70291455511657    7.12616065843103
H        -4.67638511503871    7.56278755161584    6.50438575354857
H        -6.02349912171548    7.43566100435993    8.49261843703898
H        -1.19824928368709    7.15898499944334   12.07889381232582
H        -1.14065738241733    8.91929896241274   11.85038176530038
H        -2.67873187450990    8.13759317758573   12.21874246028237
H         0.46666310424023    7.78678371623275   10.10590505287945
H         0.08334288158587    7.90707447648012    8.37819417235026
H        -0.05828275161802    9.33593486661892    9.42500807383877
H        -0.22805724309234    3.30825573098232   10.75255847487701
H        -1.64502285542683    2.73866268269453    9.84378531201682
H        -0.17028677737189    3.22656374375300    8.97917848235490

