83
CSD_code = NODZUE | q = 0 | S = 0 | Stoichiometry = C35H28Br2N5O12Y | MND = 9
Y         5.62204243492672    6.52718864166684    4.98020988656518
Br        1.98343243880123    1.34021067158752   -0.98098677247013
Br       12.17436366298111    1.25148712540240    8.84070203251474
O         5.24405856455062    5.63478232017610    7.07575440560134
O         7.74404034895930    7.14575879603464    6.21011914108727
H         7.54654407892472    7.55147143894745    7.06894095764447
O         7.09411938856043    6.36152666410545    3.33063914152268
O         5.64120199964478    8.57684960185133    4.39296675160954
O         5.41369360252788    8.25164718845679    6.47217073592126
O         6.82402097442864    4.61224659414503    5.37776484488453
O         4.43999143367740    6.54752635801500    3.01586968398515
O         4.84118648638946    4.52401994328106    4.63934987062749
N         6.12035569829922    5.21497184947462    1.15159256099252
H         6.14893430332907    5.30002637113580    2.17471868376786
O         3.55135194770065    6.93501067301062    4.89845073550302
N         5.33710217503252    9.03284106693218    5.51195696643895
O         5.59431505297357    2.95859723860601    5.86249277212678
O         5.02570230032652   10.17463598219792    5.65415695829069
O         2.32837330831331    6.68864687131880    3.17768686491682
N         6.92452121482499    4.26635006169136    8.56595099753134
H         6.68070330323457    4.64271143344611    7.64290845846722
N         5.74202128323144    4.01194040567151    5.31749065620276
N         3.40968338283093    6.72036294163809    3.67670430615123
C         4.80081784199817    5.10060415843539    9.34930496763499
C         5.18357266206856    4.34213034888853    0.61609599731750
C         7.66676330004941    7.19704387483559    2.55923720534543
C         7.67780190234623    7.04568374886968    1.12178474145857
C         6.84832818769160    6.11073246572092    0.51078365150970
H         6.74996131448045    6.13020647911869   -0.56589607388027
C         3.86952312523984    5.20576540375977   10.46071729891253
C         4.44535579018935    5.67384637797551    8.06641813869515
C         9.08590059101246    9.06904518425765    0.92378031837120
C         5.99757293383752    4.41814794519638    9.50246899181684
H         6.20844008872896    3.94067254024112   10.44865318038795
C         8.46246961491540    7.95733522177234    0.31167608095249
C         8.97665246164129    9.24076334195168    2.33342672857052
H         9.45065702676305   10.10603162603021    2.77566968086589
C         5.09071040653310    4.06633739430600   -0.74934429156099
H         5.75927299849148    4.52926937985178   -1.45762874044523
C         3.23687545444115    4.86405574606021   12.77707081724011
H         3.48946004195893    4.50012770748028   13.76200052289244
C         2.60912813771481    5.81048752552116   10.24897288266023
C         8.11627750484679    3.56316518905070    8.67647259988153
C         8.33002117240003    8.34409439685509    3.10940400603256
H         8.27004995966943    8.46771778887123    4.18078931918703
C         3.14904965266652    6.26258112871212    7.92576132172440
H         2.90248668493834    6.66266277506492    6.95410271426363
C         1.68873625847132    5.91658959253204   11.30091663267849
H         0.73275756360228    6.38012768663849   11.10640491459052
C         1.99245858260868    5.44639484930291   12.55462069331120
H         1.28075569782383    5.52971160428584   13.36150651054096
C         8.78950372606241    3.23069715606678    7.49759023969403
H         8.35851107600818    3.50684433543768    6.54798549907070
C         8.67780618186888    3.20695710211231    9.90407703087806
H         8.19969407254814    3.47346889375169   10.83324066082645
C         2.28107037721127    6.32062668547828    8.95869714140973
H         1.30782022531045    6.77145435485588    8.82595808019827
C         4.15281758651111    4.74856999227663   11.75548506774718
H         5.10500546072394    4.29929603137817   11.98876427595042
C         8.66027567536230    7.78483517922606   -1.06642494481025
H         8.25589467690887    6.92397306766926   -1.57503423901129
C         4.14227350898031    3.17923433275194   -1.21894622636441
H         4.07138763452085    2.96775697002191   -2.27466009838356
C         9.87550693668753    2.52063184268023    9.95009581341770
H        10.30808688871753    2.24750807375186   10.89993583069268
C         9.82268068966469    9.97960032765443    0.15288565563675
H        10.27813418557234   10.82614643937941    0.64579567763143
C         9.98505545937181    2.54450474265010    7.54216810674376
H        10.49787910825152    2.28331156446863    6.62990655759243
C        10.52169755155359    2.18979734490945    8.77042606012935
C         9.06697895159284    6.62301882058961    6.25156550015600
H         9.21017994850658    6.06389496230123    5.32899294002349
H         9.20667235894373    5.95135076869457    7.10223437997790
H         9.80114092496246    7.43375365033423    6.30677445579238
C         9.39400282580993    8.68488949081763   -1.80470517240583
H         9.52737899079084    8.52301486142537   -2.86408884437914
C         4.31478449863672    3.69718465749937    1.50019779557101
H         4.37369873513053    3.90947545306199    2.55659882030912
C         9.97155313876931    9.79878929206335   -1.19949889517039
H        10.53869585027811   10.50222455781314   -1.78955928350499
C         3.28193645612416    2.56068746714821   -0.32663112607271
C         3.36339812646754    2.81440274504688    1.03382277195249
H         2.68856183030235    2.32885711607955    1.72096901786113

