62
CSD_code = NODZEM | q = 1 | S = 0 | Stoichiometry = C26H32NO2Ru(1+) | MND = 10
Ru        5.48870594838535    3.38403823336816    7.68208428999673
N         7.07955053877907    4.24155508549297    8.81839006344514
O         7.16842535281085    2.72038092929527    6.67796985481544
O         9.37585382752430    2.81203891352207    6.55824101315320
C         4.65415225443625    1.39024260447602    7.21291021726967
C         3.53170580728782    2.22976557726156    7.47756913777649
C         3.61249146857414    2.66846489974695    8.84907116921317
C         4.77760520517856    2.08577375100232    9.43225760037796
C         5.44340561152016    1.32112468024620    8.41614839569525
C         4.92380563146922    0.57783902839239    5.99525058134902
H         5.95892270381871    0.70884624055694    5.67954887096473
H         4.26603340747500    0.84982025288966    5.17450051213111
H         4.77630679722744   -0.47860328555360    6.22299332803786
C         2.31364392643474    2.38567389934182    6.62587309240486
H         1.89848028074740    3.39053585762201    6.68477037888488
H         1.54851232579126    1.69511635240429    6.98589699895657
H         2.51439045806680    2.14564802347282    5.58497564942388
C         2.48794842259633    3.32659821992450    9.58227712066264
H         2.03284859422257    4.12418629560418    8.99888421958221
H         2.80605320571143    3.73266945418797   10.53869075233981
H         1.71649581217070    2.57897262788371    9.77598169260725
C         5.13419112137733    2.04045456100513   10.88243232670425
H         4.58097721212742    2.77195762800766   11.46367055318714
H         6.19859537754811    2.20571973258107   11.04109168785469
H         4.89301912103737    1.04731252009202   11.26554676787483
C         6.59102199367242    0.39140724990729    8.63011933489632
H         7.24958991525712    0.38138495667909    7.76231926413535
H         6.21226398428528   -0.62205226375444    8.77375515322610
H         7.17103636333224    0.66775292422496    9.50838823127603
C         4.63844103052134    5.39899134771156    7.58092966453342
H         3.56676966351639    5.30278850511261    7.40985655996989
H         4.89113548699383    6.20612745784346    8.26102706970705
C         5.49075417912784    5.19877735868314    6.46765245983593
H         6.43056352113658    5.74449094256428    6.36070280283848
C         5.12934411020754    4.20361881887027    5.55373003439236
H         4.06764355514658    3.99501073846897    5.42890444842895
C         5.96644588960545    3.87535690515740    4.36766139966073
H         5.90471794020343    2.80952171757088    4.14209516537061
H         7.01406721881675    4.12184371366911    4.54782135282022
C         5.46419115862160    4.66142449617906    3.14121475870040
H         4.42077518247887    4.40541429151965    2.94600272596183
H         5.51269859798797    5.73037300830794    3.35745581824015
C         6.30744245985509    4.34620688438439    1.91408971570130
H         5.95343111508412    4.91833700534613    1.06064229308638
H         6.24892577151025    3.28907062657939    1.66717941437947
H         7.34977851098141    4.60008150492230    2.08879450933432
C         8.32060107415022    3.10712387642064    7.07137407799892
C         8.27534590816111    3.98992024029303    8.31323618894510
C         9.47398718072486    4.45128042694216    8.87419044621481
H        10.39186462122196    4.18484592627806    8.37373749776288
C         9.42178439807129    5.20993935796381   10.00944714087849
H        10.31746218900297    5.59885523061892   10.46911552666729
C         8.16753799721062    5.47924056543391   10.59422875208654
C         8.04257447670747    6.23416098668852   11.77912464019105
H         8.94108653235316    6.61756994809117   12.23748970017647
C         6.81627807495018    6.47128111826701   12.33381584008100
H         6.72774433540963    7.04989468279604   13.23945914282260
C         5.66251520847496    5.95620369027723   11.72455576269786
H         4.69912486531806    6.14411908405923   12.17335706095449
C         5.74682459434339    5.22286100621224   10.57197380138618
H         4.85723093206078    4.82782971295739   10.10727169672578
C         6.99297955117670    4.96661387393258    9.96705427320522

