49
CSD_code = NOFJAT | q = 0 | S = 0 | Stoichiometry = C15H7F18O8Y | MND = 8
Y         5.44317205409261    6.07480675414454    3.81951133384791
O         5.72657496273239    4.65171578144424    5.48048133279705
O         3.41915629579822    5.15419115018365    4.25978638777911
O         4.47761553492357    7.73842683005028    4.72983277435120
O         6.29834454692542    7.61162947023309    2.61341545058958
O         7.52672992382573    5.22960213704518    3.53966532219567
O         5.26537132926133    4.37348129578282    2.42794927888148
O         3.76357391650789    6.71089361499737    2.07800973711979
H         3.80568118326084    6.14902412104542    1.28937207196127
H         2.87491965311208    6.57473721532805    2.44458123311427
O         7.05252427816261    7.11697987750819    5.41819504583662
H         6.98310717867438    6.75694678724853    6.31530814286824
H         7.95213397386856    6.90324628037623    5.12174461576017
C         6.13544153619948    2.49020673932868    6.36299623282661
C         5.21396980832679    3.52377491952854    5.67740164007215
C         3.94268730144444    3.09636816421983    5.30695539044602
H         3.60968178690363    2.09679349045983    5.52678311121301
C         3.13769387091976    3.98482552704818    4.58604388165634
C         1.75894755303309    3.47311419237115    4.10443355033896
C         3.65547341476079    9.85826202824300    5.37015624901784
C         4.54694802916788    8.96064982780408    4.47610990978932
C         5.29865833391494    9.59120261901040    3.48405189015664
H         5.25575004334510   10.66233546902670    3.37511811046124
C         6.11451385104723    8.84543719154355    2.62917068765079
C         6.88706906603635    9.66692934220311    1.56574828723221
C         9.31197388133061    3.72197411685865    3.92327425566278
C         7.89801666100432    4.04996536105847    3.38717853335153
C         7.16539163466238    3.00471778459849    2.81442852378542
H         7.57625943236364    2.01264383328478    2.74038711291541
C         5.86672688151541    3.27276887157366    2.39379596112968
C         5.03268724624943    2.08184425909535    1.87094449218957
F         6.49720427724768    1.53203441215276    5.49600152415461
F         7.25444269050683    3.07952034368965    6.78914387421738
F         5.56525082385564    1.88675275836591    7.40589783746760
F         1.31898478984885    4.25053489468218    3.10742573281978
F         1.80136997651811    2.21940534346139    3.65142059360568
F         0.84388896334603    3.51139691594349    5.07804634279084
F         2.38541518403087    9.82267792022652    4.94539248632329
F         4.02747532690485   11.14116188870179    5.38160105593831
F         3.66719853484432    9.42828957606075    6.63223165447493
F         6.05284077018115   10.35522014070452    0.77519007376253
F         7.62471341862454    8.88254645840160    0.78638310484475
F         7.70660896392136   10.56093111716853    2.13441826908658
F         9.36473721923815    2.55314182375116    4.56329535528066
F        10.21963318644162    3.67704562626259    2.94312669124713
F         9.69496894755224    4.67331561484152    4.78343110682348
F         5.66851484700977    1.35685743581059    0.95071779718522
F         3.89028292220361    2.51646483722405    1.33516156791732
F         4.70967399439326    1.25560783987787    2.87768438503737

