92
CSD_code = NOFKID | q = 0 | S = 0 | Stoichiometry = C40H48NOSiTa | MND = 9
Ta       10.28391318996288    7.22599648326415   10.67132545414918
Si        9.37491383719714    3.87502226671140   11.09876991002170
O         9.74445249276721    5.33869887852765   10.57099838788726
N        10.78051714521082    8.49186361296564   12.03678921542500
C        11.99939412207617    7.02725863372089    9.16970589576610
H        12.80416123181149    6.42822064781034    9.59347724581397
H        12.43013174179923    7.96305888012704    8.81735087556883
H        11.61908161133851    6.48944133973490    8.30343225359592
C        11.51528322641079    7.34772254930736   12.48551358515498
C        11.10407962304417    6.71928515105910   13.81259824729593
H        11.29300769675059    7.40257915910593   14.64260863100184
H        11.69448867707547    5.81927491334307   13.97831878968810
H        10.05527568858793    6.42995404170108   13.81701522179005
C        13.03139936627685    7.52227712844552   12.46542978005307
H        13.37188034419365    7.92082234179248   11.51361619733817
H        13.51836465185268    6.56389987914968   12.63746785536868
H        13.34062148378583    8.20384115646699   13.26063221103987
C        10.76831856821056    9.70698645742342   12.75712734387305
C        11.65246753175094   10.73789109810877   12.38983830398454
C        11.67007618811745   11.92087328489749   13.11410603394524
H        12.36065482801139   12.70031370675355   12.82516204231193
C        10.82104847284870   12.11585455085993   14.18647268234659
H        10.84996805743194   13.03856313447437   14.74629030392860
C         9.91736775672485   11.12581248078427   14.51647963864026
H         9.22472150434635   11.27828346323400   15.33217266896644
C         9.87110280081797    9.92781211715842   13.81549687108786
C        12.57303919878994   10.60665134717959   11.21160568575941
H        12.61485186459060   11.55020920222633   10.67029517872352
H        12.22778055232090    9.82108463527712   10.54143214806448
H        13.58337579616042   10.36932376635223   11.54279023996337
C         8.82192176874725    8.92528001785316   14.20030364862283
H         9.08655972352481    8.42845118325624   15.13296141538738
H         8.70470010149099    8.17365847433462   13.42431272219063
H         7.86996175830292    9.43140982985332   14.35645833540589
C         8.35447706177182    4.05985959148842   12.69296112184525
C         8.15848086239675    2.99754106641240   13.56827405957355
H         8.60251753633679    2.03894202509608   13.34164047493416
C         7.40982539306127    3.15097746389931   14.72167342568229
H         7.26788043982677    2.31303165167273   15.38947660592009
C         6.84243713687700    4.37789002458065   15.02295781634296
H         6.25816506802019    4.49954698862119   15.92369087316284
C         7.02746428002046    5.44822173081066   14.16400704042609
H         6.58742080690782    6.40862822498341   14.39468019043463
C         7.77592309173084    5.28319576797413   13.01225026736595
H         7.91534650797718    6.11616269156139   12.33139991377696
C        10.95536413896100    2.89050699948674   11.45810115395331
C        12.16004153210242    3.54798426418286   11.68122053081666
H        12.17588738752296    4.62885868029481   11.63249285185125
C        13.31883314806063    2.84232771668998   11.95100830715045
H        14.24801151824174    3.36862970856833   12.12119713749900
C        13.28986456095676    1.45862549025598   12.00250235481575
H        14.19265813945587    0.90358102125131   12.21425902521342
C        12.09956953444871    0.78815695335902   11.77553019380544
H        12.07373063842119   -0.29209077523479   11.80795381858120
C        10.94563982422861    1.50119530804030   11.50415346400963
H        10.02125711883877    0.97277638210469   11.31435776288834
C         8.36042499408532    2.94153411306114    9.79086179561369
C         7.07296421178669    2.48502323714032   10.04960350007409
H         6.63561106634784    2.66302223467843   11.02253668774845
C         6.34584851357369    1.81145868265589    9.08395107579458
H         5.34587955911065    1.46523558049170    9.30467231869528
C         6.89785174628318    1.58304500984262    7.83503102532774
H         6.33093437576941    1.06009463045136    7.07813990569952
C         8.18077918405676    2.02685717531380    7.56088419747726
H         8.61777610306193    1.84951017326854    6.58817489983687
C         8.90186812081648    2.69637786170241    8.53293385384648
H         9.90518051404804    3.03826710553803    8.31968324481981
C         8.06018874318061    8.51601297002157   10.12014722307873
C         9.05055405324728    9.25670575912796    9.39028668980290
C         9.34831655111186    8.52745492930918    8.21203453362006
C         8.54832521422967    7.35738911314648    8.20209997391971
C         7.73796966613683    7.35817279019155    9.34503731862754
C         7.18123798473679    9.12230520619609   11.17443900034875
H         7.73481674256336    9.84009918420439   11.77486795274268
H         6.75282844004182    8.36702238946390   11.83178438545623
H         6.35338309766383    9.65322789798624   10.69772714265541
C         9.38763029162588   10.69624323884314    9.63868621011881
H        10.30485040561047   10.97983341061466    9.12857068638399
H         9.50730716496125   10.90117074497939   10.70046727375590
H         8.58457826771373   11.33327246997271    9.26104353951533
C        10.21812333737052    9.00409685009865    7.09164503119123
H         9.62066873836513    9.56388497003979    6.36868873979927
H        10.68147426125291    8.17263399704343    6.56400797988121
H        11.00446762977519    9.66306912168636    7.45490774209779
C         8.51344568512046    6.29613318432319    7.14887479788296
H         8.52857257631824    5.30611998258935    7.60644842876224
H         9.35965839164005    6.38116416504227    6.47062512120077
H         7.59891588628357    6.37246423428930    6.55707730409518
C         6.67164188908868    6.34944863548285    9.62762265423872
H         5.97397883792131    6.30122930682649    8.79001579649856
H         6.10999326699640    6.59967904073132   10.52468982989944
H         7.09917615957211    5.35231581437338    9.75198872929539

