47
CSD_code = NOFLEA | q = 0 | S = 0 | Stoichiometry = C20H20Cl2P4Ru | MND = 6
Ru        0.00353238586819   -0.00200336562197   -0.00305397631765
P        -1.58077086708547    0.73683933981724   -1.50024811493085
Cl       -1.50969587198862    0.66060200653809    1.76699755245331
C        -3.13397085482079    0.05447752578386   -1.79000934645787
H        -3.38383284046189   -0.86410895831876   -1.26753886450559
C        -4.05335696905293    0.63158172587152   -2.64265583367204
H        -5.01011128539188    0.14011964000346   -2.76711480102248
C        -3.82574581461294    1.80344027632253   -3.34872731096603
H        -4.60881228808371    2.17547831390083   -3.99329908061898
C        -2.64356281266908    2.52297777080087   -3.26379120711274
H        -2.55615190138143    3.42942754946605   -3.84962512484830
C        -1.57319671486583    2.15726961256073   -2.47190029374859
H        -0.67955368854348    2.77265046935162   -2.45587419954657
P         0.99295595444306    2.07562863035445    0.00439342359581
C         2.03328105081084    2.76623291191236   -1.17902018998096
H         2.24374674101346    2.17221282608926   -2.05965426841804
C         2.59697684907188    4.01694972453243   -1.02601088222627
H         3.24234263737017    4.38295823886729   -1.81484966067230
C         2.38714078503474    4.83301044155376    0.07619591264629
H         2.87366130474576    5.79757479029396    0.10038183079824
C         1.58565686379718    4.47199698506356    1.14909159802778
H         1.48201196535331    5.17471640423597    1.96626739046944
C         0.91414754092336    3.26904277371720    1.24014650280040
H         0.29790396171386    3.04877750690098    2.10276296487598
P         1.58494793979296   -0.74002789026576    1.49777369129378
Cl        1.51459036382089   -0.66401798699450   -1.77293412217195
C         3.13535375377276   -0.05420325874368    1.79449327181309
H         3.38618326257674    0.86406331485672    1.27189713011587
C         4.05149226130170   -0.62818361659233    2.65275032869965
H         5.00671055856870   -0.13475844233671    2.78120133525037
C         3.82244035718243   -1.79925131459515    3.35962979011457
H         4.60285262270001   -2.16874508777357    4.00886135520795
C         2.64207884687171   -2.52121040484196    3.26970511448500
H         2.55346144497270   -3.42697682441108    3.85640712311824
C         1.57509147227688   -2.15881617879748    2.47178638788169
H         0.68282041251480   -2.77606328758925    2.45200692945528
P        -0.98774436393976   -2.07931774462433   -0.00932072036152
C        -2.03013469055497   -2.76697202644717    1.17403463712175
H        -2.23867310794573   -2.17246615861461    2.05480372210027
C        -2.59771654543361   -4.01590363703762    1.02091172581225
H        -3.24412137508614   -4.38005034033905    1.80976153395135
C        -2.39057051253078   -4.83237573591568   -0.08149825082434
H        -2.88015281815179   -5.79539101020926   -0.10585028315562
C        -1.58803271252628   -4.47365374696874   -1.15436105231001
H        -1.48662582536828   -5.17659056247189   -1.97163689664686
C        -0.91284286601678   -3.27272082100203   -1.24532749499789
H        -0.29600460998641   -3.05422037828542   -2.10795927656930

