48
CSD_code = NOFNOM | q = 0 | S = 0 | Stoichiometry = C20H22ClN3OPd | MND = 4
Pd        0.62065425890710    3.37236931226880    2.20260097988697
Cl       -1.20972386583225    2.17753813444650    2.52928832165564
O        -0.43065328564210    5.23854223104169    3.13873175857760
N         5.65859083599343    3.47294790774990   -0.35424306710117
N         3.53674903758084    3.45375234228371    0.75766828790960
N         2.04803111691002    4.80045672617729    2.00578907483823
C         6.81534174249366    4.12037985555364   -0.76552855211147
C         6.88373965068445    4.70386431531086   -2.02881604850818
H         6.00343929184704    4.71063969797646   -2.65477782375856
C         8.06860270256266    5.26258094847792   -2.46832292389849
H         8.11155435522801    5.71661486628485   -3.44771734998403
C         9.19475725718774    5.24468516961583   -1.66225600140666
H        10.11802601015349    5.68286672170845   -2.00976863140527
C         9.13108355314129    4.65651600450474   -0.40983085883822
H        10.00604439988552    4.63538127306421    0.22339275804579
C         7.95202893935534    4.09455025319829    0.04023107562986
H         7.89672628457899    3.63054594139107    1.01411227265478
C         4.72074277915382    3.99912263292491    0.28378959881005
C         4.35655688644821    5.37641478169830    0.87106317060105
C         5.29114196652590    5.84595993570559    1.97767813423973
H         4.89537943064512    6.73388307407535    2.46748360514620
H         6.26424505010567    6.08805346589591    1.55447680507920
H         5.42253354139000    5.06584841243695    2.72496751385028
C         4.11594349704793    6.44659329486904   -0.18629904143426
H         3.72783197512113    7.35935765761598    0.26247806678356
H         3.40642816739710    6.09535937613940   -0.93298899963882
H         5.05479545084676    6.68179267128439   -0.68413143117991
C         3.11333657161936    4.61918073880345    1.33756413490548
C         1.74353373213087    6.06946851009023    2.63126057230031
H         2.28872964618540    6.89522267972538    2.15854228842461
H         2.03340883318182    6.00787913637408    3.68854155213111
C         0.23791126461710    6.33948749227501    2.55862135303883
H        -0.00085307170950    7.26025340057674    3.11428620344271
H        -0.07522470354788    6.46963013786878    1.50784427216634
C        -1.83324167814535    5.40007910929731    3.20320311062222
H        -2.08868190917822    6.22532990915700    3.87915455190057
H        -2.23348119648969    4.46065955013743    3.58435256998928
H        -2.25733658311137    5.59657056539860    2.21150244819507
C         2.97665241791143    2.16652615075799    0.75911975102157
C         3.72183748971051    1.15527253040851    0.15439288696463
H         4.66655501794571    1.40647557151485   -0.30135771733446
C         3.25073768817024   -0.14133313437038    0.15055575288249
H         3.82948614817537   -0.92249884198693   -0.31896057313832
C         2.03958290297505   -0.42547313587477    0.75587807577358
H         1.66270898584591   -1.43743318294567    0.76777733338248
C         1.29753578214442    0.58469615419692    1.34840610540424
H         0.35371786968483    0.32328551538176    1.80556183792947
C         1.73239376217019    1.91190413951394    1.36488279555350

