96
CSD_code = NOFPUV | q = 1 | S = 0 | Stoichiometry = C53H37CuN5(1+) | MND = 4
Cu        0.37510397595131    0.76284221678506    3.48288423039438
N         0.39755720463369   -1.20149208308370    3.01534666907972
N        -0.46997934043028    2.40790325949739    2.66583977221280
C         0.11803932439547    4.28579960187368    1.26407402432488
N         2.06623592847469    1.57421980978747    2.75560366163308
C         1.80188945453423    2.67868798764628    2.04125192986765
C         0.44420162568753    3.12324197160673    1.99094290937279
C         2.80393304341547    3.39854160479647    1.35983734138960
N        -0.22361856831187    0.13712445683534    5.25084821686071
C        -0.81538135401789    3.20985523220422    7.11937080182517
H        -0.57749956411632    4.25860123961738    7.01997776031203
C         4.23968796346568   -1.34882757082997    1.54691118469613
H         4.24253874675664   -0.42379147044645    0.98902106601302
C        -2.14816198232371    3.94826386280460    1.98960565235100
H        -3.19144242672248    4.22249166104747    2.00410822098111
C        -1.54844072876344    2.77624623700108    8.22094394019195
C         3.85802269895623   -1.32692201626842    2.91398969687650
N         0.30536525791001   -3.21411591039083    4.25719954393840
C        -2.62912387098836    2.05115771721593    3.59236590069768
C        -4.10015551851673    0.53620956103774    5.43194543103657
H        -4.65447525444878   -0.04935589172824    6.15158236777976
C        -4.00271063369996    1.91216317181364    5.60986572740125
C         3.30005653799383    1.09970926395664    2.82371917872377
C         3.84486311192100   -2.56858358535037    3.62486039832167
C        -3.23400719800856    2.69123239947899    4.68906899120950
C        -3.52125123213608   -0.10125973406292    4.33958488205936
C         2.64681068582774   -1.46732673031405    6.98136058096036
H         2.61072043465808   -2.42382335653276    7.48118130214214
C        -4.63628893985030    2.55715928067334    6.70232985566306
H        -5.22552093461237    1.95361807547936    7.37668944447419
C        -3.64992227793259   -1.49993631585831    4.14303503362744
H        -4.18006437598806   -2.07459766065791    4.88810127677946
C         4.11922992894151    2.90751294062140    1.46510845257201
H         4.92529938782261    3.43667717443970    0.97871468650621
C        -1.23649222796562    4.66995817908482    1.25962526613390
H        -1.54363060162522    5.53408865419692    0.68928345854032
C         2.43957840099562    4.56317645677303    0.62698122565414
H         3.21653545194903    5.10323400765329    0.10744792798638
C         4.60475584698241   -3.72877579189918    1.64158769254392
H         4.90262248972612   -4.63381868745499    1.13498491715220
C         0.92594456498947   -3.24663507465945    1.96843464280567
H         1.21583051299032   -3.80113748552066    1.09186246067992
C        -2.79490288036989    0.67104578380349    3.38155982263626
C        -0.39487930370905    2.31848675187058    6.15798660023130
H         0.17273200260658    2.65008302731416    5.29914445910890
C         4.36365565182300    1.76311295466612    2.18479257966970
H         5.36438973166824    1.37372013087092    2.28876597307446
C         3.45741583948520   -0.15574082149224    3.57859275228975
C         0.77206711742341   -1.86375424177661    1.92507052470689
C        -3.14716944551696   -2.09948259732001    3.02995341848830
H        -3.25819985967209   -3.16271663305772    2.87984155695245
C         0.67877011011540   -3.87777971336101    3.18101793668935
H         0.77614431294636   -4.94857491126201    3.29532238227775
C         1.15096675088418    4.98852578306115    0.58172803814448
H         0.88322811832876    5.87437740145156    0.02591156739520
C        -3.09287098566117    4.07797456015944    4.95533026683512
H        -2.47519970071164    4.67884279913231    4.30494273555294
C        -0.25880004355951   -1.14999558368287    5.29239459085480
H        -0.59403901379735   -1.73049650241006    6.14505521243031
C        -0.68154363779839    0.95455991764823    6.26815476861804
C        -2.50332874658144   -1.32602281634790    2.04383915944384
H        -2.16381927629032   -1.81062489330299    1.14013923486697
C        -2.32107485644178    0.01350446283929    2.21598146481122
H        -1.84725841581623    0.59712374821563    1.44062956108995
C        -1.84584484624314    1.41951886097823    8.32313406822657
H        -2.42191888266996    1.06898872612700    9.16675002992113
C        -1.72923292789117    2.81465880280726    2.71330031186577
C         2.77978253890616    0.98745575342595    5.66902646685694
H         2.86322523603135    1.94739187102461    5.18143099143377
C        -3.72253927175571    4.66234408449586    6.01219253043232
H        -3.61608402592275    5.72267526078454    6.18636865753307
C        -1.98787523256908    3.73484579513920    9.27723616732590
H        -2.07607678601042    4.74165070586472    8.87789367549396
H        -1.25459536984427    3.75540955050913   10.08435298251440
H        -2.94118470223580    3.43316410182365    9.70342080387136
C         4.23052077658757   -3.75502592251278    2.94923426133016
H         4.22229158496277   -4.68128399210221    3.50428975935542
C         2.41816517748096    0.92175544147264    6.98073220334364
H         2.19933512051980    1.82516482667511    7.53000179755072
C         3.05755036431268   -1.43798432467638    5.62406190219863
C         3.42792442389454   -2.59769377214446    4.95164486895880
H         3.39097953578577   -3.54391235350701    5.47185600324337
C         3.08724171184843   -0.18693648186974    4.93445941112071
C        -1.42359714117945    0.51780955174537    7.37053393728516
H        -1.68621364600922   -0.52300402337734    7.47576458666215
C         0.17551610169082   -1.89790145749405    4.14500136246176
C        -4.51562614766958    3.89854335875308    6.89131427956202
H        -5.01322410035056    4.38688876023050    7.71493747035067
C         0.96996472087379   -1.08999311504103    0.66753791681486
H         0.94169752631543   -0.02388255868886    0.88157309447175
H         0.17725952149711   -1.32968621048536   -0.04027451196952
H         1.91930139378341   -1.35248078268554    0.20656585083989
C         4.60628836845348   -2.50918892499068    0.93428207596656
H         4.90405515273231   -2.50372709628061   -0.10383815658888
C         2.32838679607040   -0.32037494767199    7.64052373143240
H         2.02278800747333   -0.34647475385504    8.67545913999676

