60
CSD_code = NOFTUA | q = 0 | S = 0 | Stoichiometry = C19H37FeNP2 | MND = 4
Fe        3.87502634959753    8.22938965683465   10.37249543906126
P         5.73306423951464    7.38181842422960   11.12417359044108
P         2.17685011776007    9.54066858934855    9.99053111654969
N         4.43688731966847    9.73340374597903   11.47351305021368
C         6.29881636197593    8.50056673431940   12.48738830988446
H         6.08468656445472    8.02271805086844   13.45094088835931
H         7.37565334856906    8.69063449191291   12.43208759123631
C         5.49149430966954    9.75122573025359   12.33442473904323
C         5.57485264601058   10.98604319202263   12.93759787049258
H         6.30392206440540   11.30022342246419   13.66185092167991
C         4.51630497185875   11.75963773557712   12.41981668279813
H         4.28267718075305   12.77727232903161   12.67393044483901
C         3.84236862172751   10.95689867878296   11.52718189838304
C         2.65646176111741   11.20368318955628   10.64909673536573
H         2.93104719883015   11.84939112001388    9.80610916850851
H         1.83115941816994   11.67871724173025   11.18927693366929
C         6.97484713319861    7.75592762000511    9.77816208369210
H         7.96782894905120    7.95035622963160   10.20426461512063
C         6.44765272599225    9.02983959315022    9.11082261357155
H         7.05244752968699    9.29737219736446    8.24456083495693
H         6.45734630215322    9.86444697931569    9.81016027442920
H         5.40641360861185    8.87029242369062    8.77243137207285
C         7.06136392894610    6.62261114616646    8.76126845693351
H         6.06333148513114    6.34581606011910    8.42794017592583
H         7.54567477707421    5.74461121311568    9.18241188615241
H         7.63877706698762    6.94024837337107    7.89343889711915
C         6.17582576950379    5.67327042141797   11.72973812122454
H         6.10533662085699    5.01950276956524   10.85292954939641
C         7.57310233408467    5.56752757614369   12.32871528697788
H         7.65471029466412    6.16826432847900   13.23162209760365
H         8.32898452409293    5.90275480697938   11.62156263349745
H         7.78884437164075    4.53249872424416   12.59201773880320
C         5.09246344828229    5.25251003718619   12.72037588462356
H         5.23336446345425    4.21921455334014   13.03362112329168
H         4.11036421191451    5.34565010602740   12.25541083842820
H         5.11077311778021    5.88238312473705   13.60863300798911
C         1.16621441712275    9.94017090320122    8.47307676222013
H         0.63797053992906    9.01519954230984    8.21549353280376
C         0.15652820356117   11.06376925900479    8.67754769503257
H         0.66197717842733   12.01083061679865    8.85146824961856
H        -0.49321139760350   10.85957282957246    9.52603733163999
H        -0.46598404802964   11.17239127879590    7.79003328557800
C         2.14682063941740   10.25176866378830    7.34468969485605
H         1.62098308055433   10.38481661952120    6.40056844138594
H         2.85772188618299    9.43250084730337    7.23581509728836
H         2.70507902642662   11.16326294614572    7.55393131622857
C         0.93317629661704    8.96122678240717   11.26699454160817
H         0.40480232806321    9.81702828560509   11.70718784386151
C         1.78037248492401    8.27474553117077   12.34495973066533
H         1.14800371118173    7.79777455586556   13.09362077694592
H         2.42398421216890    8.99519767535565   12.84781792806603
H         2.41292682781909    7.49145749810839   11.87978594659331
C        -0.08160828621330    7.97590321702257   10.69620619053047
H        -0.75702810069057    8.45636998682305    9.99248536138709
H        -0.68192359051571    7.55236210278073   11.50106862377379
H         0.43041142174236    7.16040388350747   10.18956740213116
C         3.32824241216367    6.70833865381296    9.18177033426590
H         2.25020251274347    6.57466669271750    9.07950571416116
H         3.73009255529472    5.73324363213594    9.46175959696118
H         3.69782055154351    6.92550737928479    8.17360573010177

