98
CSD_code = NOFTAG | q = 0 | S = 0 | Stoichiometry = C35H59FeNP2 | MND = 4
Fe       11.58668485884060    3.61940724867301    4.77942422387374
P        12.46074979314280    2.38374629721699    3.21919473338676
P        10.26618792310810    4.90432540006138    5.93560279764300
N        10.16436373657884    3.80518316369565    3.46244577382164
C        10.06322394779823    3.11841268965032    2.28886072156337
C         8.90451912166232    3.48699504341257    1.63698857463786
C         8.26532461500619    4.44450266584651    2.45905939765493
C         9.07146456244848    4.61440111446282    3.56552394980211
C        11.14012283271658    2.13989918836234    1.94170051939304
H        11.52898075637763    2.29458237514981    0.92902043413159
H        10.76222808336923    1.11273272773254    2.00775399810719
C         8.97233844118062    5.51090713540830    4.75700144767588
H         7.97421685202417    5.51365533280581    5.20394891865923
H         9.21485880994158    6.54641368157874    4.48634563871235
C        13.61833921705696    3.57940847157192    2.37225859308276
H        13.68808803738568    3.37960242168754    1.29448299519136
C        12.97665379455465    4.95486816401219    2.60305746767307
H        12.81671036199153    5.08935675937378    3.69773811933877
H        12.00054260944014    4.99377875196615    2.11384059369032
C        13.85866125772865    6.08608359620360    2.08755650308926
H        13.97021109095694    5.98950794530632    1.00442396573476
H        13.38274731526146    7.04787023813094    2.28959359581582
C        15.23371058456062    6.03096750871053    2.74374202867182
H        15.12628640071316    6.17023752053370    3.82186318275481
H        15.86561061631924    6.83519674953159    2.36116466089782
C        15.88429428859189    4.67942948814081    2.47125573994196
H        16.02711645447132    4.55788507288292    1.39420352078211
H        16.86758684772852    4.63547600982013    2.94454791641205
C        15.01098840509685    3.54374757174325    3.00012923023562
H        14.90623113364579    3.63917664846747    4.08339976893723
H        15.49870416465632    2.59070532867398    2.78564142558677
C        13.37140815089572    0.76122818500993    3.24782233375559
H        14.29762190821273    0.94545499774159    3.80585031496258
C        13.71690206131245    0.19415135368502    1.87389220596427
H        12.80154849994492    0.02084828192793    1.30473212272035
H        14.33228086374180    0.90269766059055    1.31494249730824
C        14.46322937115644   -1.12953504763721    2.03048725901235
H        15.40717802943032   -0.95501497216330    2.55280080206706
H        14.69705488748284   -1.54101893697688    1.04602503932921
C        13.62355490941225   -2.12639899990057    2.82454392539454
H        14.17015713596138   -3.06491653478090    2.93784984470624
H        12.70283927601782   -2.34020523611143    2.27644479680289
C        13.27395377324889   -1.55915484520279    4.19790319126176
H        12.65773048845409   -2.27219297878391    4.74972874792787
H        14.19241197500293   -1.39935245561753    4.76764584863465
C        12.53328168321697   -0.23307673440124    4.05222096094374
H        12.31713682424687    0.19387222378264    5.03667131534142
H        11.57876241249005   -0.40675353895266    3.54811962848336
C        10.47586969675172    6.39420551493566    7.03884601818310
H         9.50489338314539    6.89855941858080    7.13733448678657
C        11.46339822407200    7.31190153148065    6.31249711571401
H        12.39978977929771    6.76340355927630    6.16987420456458
H        11.07953506752063    7.56996978323282    5.32137781747123
C        11.73281826015208    8.58155018667762    7.11284427938057
H        10.80409776124946    9.14751941129466    7.22131435566441
H        12.44823045430553    9.21208463601123    6.58037433452403
C        12.27422384146994    8.22622741810242    8.49367952311083
H        12.44733706152017    9.13501261275304    9.07388655454993
H        13.23042343703342    7.70965729526326    8.38497197698345
C        11.29102035472048    7.31948185633044    9.22620400596871
H        11.68901497915343    7.05432608290405   10.20813668882168
H        10.35155127108795    7.85664573279594    9.38106983751461
C        11.01867873335553    6.04915070142198    8.42252480458759
H        10.30407110246446    5.43001509754579    8.96837093011886
H        11.94528344834789    5.48205537843499    8.30910864351340
C         9.40798690968363    3.62131101129397    6.98250572738214
H        10.05897288451131    3.49092670246190    7.85761168760424
C         7.98852662084549    3.90975019509829    7.46226782273687
H         7.95929390579213    4.84197544243439    8.03185749506481
H         7.32126147513969    4.01245147477724    6.60441113599217
C         7.49328702096344    2.75066940146241    8.32561836408866
H         6.47588787575251    2.95228334464850    8.66817834188205
H         8.12998748266575    2.65372275777972    9.20860988080074
C         7.52430014759876    1.44771267010047    7.53093400900459
H         7.17368139921812    0.62335006447798    8.15540860046811
H         6.84914824317166    1.53120534339915    6.67632822108921
C         8.93660695239922    1.15413034192020    7.02936961698270
H         9.60173835262165    1.00927754565276    7.88444566124813
H         8.93852563176615    0.23248698725462    6.44380083908878
C         9.44632839908056    2.31445878188594    6.17977047561854
H         8.82353611621051    2.41635346113177    5.28711955679795
H        10.49019622364756    2.10613891916517    5.85185361067127
C         8.33927205595336    3.01275287290103    0.33813617130342
H         7.89125972810116    2.01888682549100    0.46495580295262
H         9.12785474607901    2.91717637042100   -0.41567620641797
C         7.26718814773565    3.99366891547874   -0.13885691351718
H         7.74457559680658    4.92118506714716   -0.46458864295996
H         6.73140944077087    3.57193870453599   -0.99328383659490
C         6.28641335407944    4.31001695737049    0.98973104823067
H         5.90632205713934    3.37230588184862    1.40291066699240
H         5.43615629349324    4.87540531855390    0.59942498618935
C         6.97731104089437    5.10851129073027    2.09618051825281
H         7.16949108129143    6.12903738295037    1.74143344610366
H         6.32238183913983    5.18953948867385    2.97033327679319
C        13.02398969978589    3.41162361778309    6.16950991414913
H        12.60332640685411    3.24834112640237    7.16517004338472
H        13.71807411395418    2.58751428260178    5.99664103511796
H        13.62867273660144    4.32073050210047    6.23932079449373

