115
CSD_code = NOFTIO | q = 0 | S = 0 | Stoichiometry = C40H68BFeNO2P2 | MND = 4
Fe        8.61714355342441    3.30787411643139    3.80721336903205
P         9.13990903727294    5.12234189322401    2.77729618633691
P         8.54111926906727    1.65041881242204    5.19001663609700
O         6.55738968554217    2.23184310377580    1.65645672593687
O         6.03069895189520    3.36775802711738    3.54691435216086
N        10.05410896886137    3.89283886928101    4.99584484567665
C        10.91980658317710    4.91809667389067    4.75929817959144
C        11.86868266338178    4.96047457191451    5.76059746111847
C        11.56573106797741    3.90161631588306    6.64877693936604
C        10.45180496556949    3.26671168241405    6.13844978849388
C        10.74409146224529    5.71437435981580    3.50445001655038
H        11.55373140078111    5.50503204798389    2.79491584966569
H        10.74114243227756    6.79195383465889    3.68974348101134
C         9.67473724564529    2.07434908735734    6.60046594027371
H         9.07258016018642    2.32187274445643    7.48268123044511
H        10.32732279273448    1.23323205155896    6.85801535832571
C         9.38159458190931    5.39618702881474    0.95010819663739
H         9.93687926555671    6.32636212242662    0.77259802834547
C         8.04255536724600    5.42697883357458    0.21843536521951
H         7.46377454238622    6.30246496425949    0.52130544825880
H         7.48524833333197    4.52758894098343    0.49537319936793
C         8.24471595540301    5.45873978556191   -1.29505604432776
H         7.27425841057460    5.46964531047782   -1.79668030576713
H         8.77192912652981    6.37600442847797   -1.57107993453246
C         9.05499197174903    4.25197747292066   -1.75514066230166
H         8.50569555566525    3.33877071596194   -1.51732804865234
H         9.20100870639209    4.28910500228448   -2.83681153818713
C        10.40349023938173    4.22661883590466   -1.04375085547311
H        10.97529274699161    5.11799966157737   -1.31478993520673
H        10.97718812751919    3.35253136903992   -1.35919422817178
C        10.19437735225108    4.19239919745111    0.46644890282160
H        11.16076044270774    4.15916952038354    0.97667035123442
H         9.64051827996641    3.28652524036703    0.73891194015659
C         7.89497123689543    6.39190439587448    3.32680188576545
H         6.97884319327064    6.14835392397590    2.77495023383842
C         7.63278146326981    6.10030673017036    4.80789412682839
H         7.36213451954139    5.03479703022078    4.91930349801325
H         8.54549271875956    6.27470486473977    5.38275554800654
C         6.51033286310917    6.98616058202262    5.33884680000127
H         5.57959999821754    6.73827791547244    4.82258142711200
H         6.36043203524118    6.80065159229978    6.40442322313602
C         6.83672447205349    8.45983385180621    5.10849241981567
H         7.73350324726548    8.72287499568669    5.67412827747261
H         6.01726272178393    9.08414853031049    5.47181668413462
C         7.07863778442625    8.73244351435522    3.62628226982277
H         7.31437737001942    9.78857107443709    3.47542634977230
H         6.16911653523463    8.50924162568949    3.06259240583555
C         8.22575451546360    7.86608240668438    3.10869114525846
H         9.13344052361186    8.13294746884549    3.65318613842032
H         8.39671367784738    8.06650156887351    2.04805791428637
C         9.50840356970395    0.35695910819012    4.25187969192818
H        10.07735363063908   -0.30547761039004    4.91735892107595
C         8.58397698204623   -0.46419003920261    3.35317023823349
H         7.94011208474826   -1.10567401581524    3.95866418255383
H         7.95382091685848    0.22800474815349    2.78689264102863
C         9.38092534253199   -1.33372617089514    2.38321873003780
H         8.69377943172016   -1.89842647967115    1.74968060973566
H         9.98293550359509   -2.05258850009350    2.94567840872222
C        10.29627506351141   -0.47206085966993    1.52123128537558
H        10.85812654353634   -1.09985989090963    0.82656344294789
H         9.68966987302940    0.22416486102495    0.93836952261841
C        11.25283030450026    0.31449434853901    2.41019725999511
H        11.90659615053208    0.94040796184570    1.79963678662449
H        11.88316391737965   -0.38100631420075    2.97060737074328
C        10.47050146548365    1.18428066279500    3.38736185446116
H         9.86332277904433    1.91795162469146    2.80487638439055
H        11.16040832521863    1.73986319905078    4.02737284776574
C         7.14196914847428    0.72964594168208    6.00302624100257
H         6.57964425996692    0.25827658944985    5.18724023332350
C         7.56599237984472   -0.34313657826668    7.00260132060710
H         8.19800633916163   -1.08804159248615    6.51357089768132
H         8.14411023207814    0.11177696014561    7.80907840704168
C         6.33113840465774   -1.01952571421362    7.59600430765687
H         5.77712026721798   -1.52639318829429    6.80166197299058
H         6.63645443413288   -1.77474737838970    8.32376304023420
C         5.42531572029353    0.01082067604981    8.26525606902045
H         4.54300476453923   -0.48331866534658    8.67775076361090
H         5.96232609797891    0.48047886313421    9.09265006305168
C         5.00177630478282    1.08311693396093    7.26446436225048
H         4.36739088296991    1.82323355130604    7.75685279251693
H         4.41477511053203    0.61775084166225    6.46827868510090
C         6.22913326611002    1.76297294365365    6.66427404870222
H         6.77292327588258    2.28353039169479    7.45701524197625
H         5.93662687073511    2.50660160343802    5.91760411581993
C        13.01048461145890    5.90162516258671    5.96693207029958
H        12.64293709780566    6.85736544987816    6.36253906139194
H        13.51192896286532    6.11605712202363    5.01732261053651
C        13.99869398878701    5.29160377389502    6.96217312141901
H        14.51764391614380    4.45422688929114    6.48897744568134
H        14.74783127845906    6.03555925143863    7.24601419812043
C        13.26750859322678    4.78499255718507    8.20496972567461
H        12.64584515336381    5.59037660945067    8.60400699714852
H        13.99007905809538    4.50349955094390    8.97571362090779
C        12.38244907730861    3.58647305077939    7.85974940887990
H        13.01695268880545    2.71179994588646    7.66547436083884
H        11.73752023697523    3.33561699144250    8.70836140017805
C         5.12949698749252    2.18866975259418    1.73107892750034
C         4.79339077023966    3.25082631428553    2.83732204212338
C         4.75162054251601    0.76122284607888    2.14596794603321
H         3.67364906503550    0.63061622749873    2.17886813940057
H         5.16989142894219    0.06698364802862    1.42002451994155
H         5.18061360115874    0.52985624656830    3.11783938752693
C         4.53960936985801    2.47971848058549    0.35336085794197
H         3.45490188508772    2.52821610524385    0.40934101347419
H         4.92211574822375    3.41170939329546   -0.05106845428729
H         4.82006043990823    1.67848115220440   -0.32649605672945
C         3.68072593828611    2.84547844690151    3.80155030755873
H         2.75388629329389    2.67750252752009    3.25826013220851
H         3.94239115131882    1.94868145570418    4.35310202303321
H         3.52501066052073    3.64762428040217    4.51977870741750
C         4.46016622226505    4.63052408379420    2.25593365561657
H         3.50351675201289    4.61905812800962    1.74092865074195
H         4.40922037683824    5.34731383032565    3.07322763897063
H         5.23931123781236    4.95079975882198    1.56904982961627
B         7.05263910085688    2.83710346059001    2.77775738297614

