99
CSD_code = NOFTIN | q = 0 | S = 0 | Stoichiometry = C37H58N2NiS | MND = 3
C         5.62780182609315    3.28412243248086    6.99655241609833
C         6.33358080771546    4.31551099492176    6.36309395006712
H         6.77092001495852    5.05392716664253    7.00441472348571
C         6.54927344389870    4.51613802736232    4.99879192276468
C         5.63376082878278    3.45661504608546    8.53868122373374
C         4.92249233571284    2.39772261735008    9.38541740609079
H         5.02579125239644    2.67622543247847   10.43427356148744
H         5.35640862278139    1.41317106926530    9.25955679145780
H         3.86430618975565    2.33742794557356    9.16233331987271
C         7.09853707502474    3.47581524328428    9.01520813854000
H         7.63374228077120    4.36264762758871    8.69069720388312
H         7.62838794180396    2.60600205473633    8.63594128430687
H         7.13160854857313    3.45224495491032   10.10245736372885
C         4.95299909046669    4.79804073150286    8.86710766122805
H         3.95399152513787    4.82494146889063    8.44003410653437
H         5.50354370126275    5.65166127074090    8.48448475223998
H         4.87007819463665    4.91310776865951    9.94590750988418
C         7.37995417776579    5.75421530906670    4.61697745264197
C         6.67259354735782    7.01076207741280    5.14680058122450
H         6.56339880159017    6.99309537689079    6.22667143262289
H         5.68144401694269    7.10385790789198    4.70744832830973
H         7.24697986411274    7.89563374333134    4.87988938356797
C         8.77034702632912    5.62596215502658    5.25779027265508
H         9.27883980943115    4.73786844831783    4.88789014452140
H         8.71525176584813    5.55733227196896    6.33977139256304
H         9.37444542208804    6.49457170711598    5.00329795818329
C         7.58859791204588    5.95076353413330    3.11298757014432
H         8.18884100072778    6.84628843084396    2.95801093095127
H         6.64750226341835    6.08949480449339    2.58873601747369
H         8.12031640029888    5.11598365034999    2.66579469866002
C         4.32998939948190    1.23141667143222    6.93365730623053
C         2.94388946316891    1.33236211737715    7.15516486389473
C         2.28213229976543    0.28225895529155    7.77225285943146
H         1.22065147816080    0.35615644682298    7.95405868707578
C         2.95414389675711   -0.86102403807170    8.15599636582306
H         2.42401599587593   -1.66597923668024    8.64341391229368
C         4.30152251453582   -0.98155102592474    7.88153832145039
H         4.81453785136817   -1.89271376864222    8.14950698939357
C         5.00472837624876    0.04148318901689    7.26402420846068
C         2.14908625410110    2.53155013290897    6.68898335186878
H         2.84441370041567    3.24830120536435    6.23574100034020
C         1.40809313020351    3.22945693697548    7.83178149524377
H         0.67695597644508    2.56335753762252    8.28319309411262
H         0.88082826404970    4.10290360632207    7.45216129835400
H         2.09297521349270    3.55628828733518    8.61041829500400
C         1.14650528150061    2.08384836935732    5.62105394443924
H         1.66421246420961    1.53685639970406    4.83786630137670
H         0.64061676982445    2.94355770268980    5.18643152198918
H         0.39518012323201    1.42715313821343    6.05152288063655
C         6.46160809289645   -0.17146324786439    6.91827493208693
H         6.83111289702997    0.73194044042940    6.41738569014908
C         7.32608152303939   -0.43177876750909    8.15407395444258
H         7.27375231838956    0.39434474204348    8.85868097183818
H         8.36537104938306   -0.56243881191440    7.85792745429456
H         7.00410312279336   -1.33481657447536    8.66710534375589
C         6.58655314444869   -1.34950443215015    5.94735087070335
H         6.30015079743527   -2.27939293591286    6.43131099395398
H         7.61246954424877   -1.44868554299662    5.59894512022781
H         5.93155241182308   -1.19556013548914    5.09447259505169
C         6.06161091969683    3.58992034208706    2.75303382724885
C         7.06003702665940    2.83995157671470    2.08956353916076
C         6.96396014281805    2.66481068403724    0.71965888938683
H         7.70541547557159    2.07928157748256    0.19945198380241
C         5.92085231373194    3.22519249731469    0.00313123818369
H         5.85627127665983    3.06836694419920   -1.06333536084971
C         4.95848492011334    3.98358452120178    0.64720912441817
H         4.15416551970444    4.41323194568876    0.07118863400505
C         5.01292381194922    4.18716005363744    2.01522394310685
C         8.15757727529723    2.20230838663139    2.90877334601682
H         8.34680763546932    2.84171349770162    3.77927981589715
C         7.65782589351342    0.85005622889771    3.42633556078028
H         7.45622586223675    0.17384233234417    2.59747980468805
H         6.71872004172489    0.98619294965481    4.00835924578077
H         8.39708373139890    0.39362672696752    4.08003401562855
C         9.47232084064037    2.03645748205215    2.14933052160501
H         9.39372641597815    1.26685670840010    1.38523678096608
H        10.25832810036026    1.73944866651145    2.84064365877774
H         9.76739832573535    2.97052734842105    1.67470526405252
C         3.95052561673754    4.96342376227520    2.75775914892774
H         4.41566631767130    5.41911382077523    3.63970354623793
C         2.88436036795016    3.98019614689283    3.25066519417979
H         2.37586137999364    3.51835262247193    2.40629882988093
H         2.14824518592927    4.49068222899181    3.86709310185143
H         3.35457953399689    3.17868268378300    3.86522229684061
C         3.31354153692492    6.07833648259178    1.93071359463695
H         4.07582759050855    6.71032606131316    1.47879165351147
H         2.68985630457956    6.69796034479840    2.57188813261456
H         2.68243894104086    5.67583774977090    1.14199887353821
C         4.05518397503255    0.40111215683051    2.27037414576617
H         4.55932989767518    1.34351502575221    2.02687333873056
H         4.68514006927763   -0.42558950729937    1.93286856898240
C         2.69218702966192    0.34143426776691    1.60362149756587
H         2.21208143251272   -0.60895934067008    1.82615022398636
H         2.79328959408471    0.44204467520784    0.52327804257680
H         2.05113076352789    1.13885732517082    1.97384508076376
N         5.03609433475682    2.30537867910198    6.33153765366834
N         6.05882393475958    3.66420733774876    4.14165128355004
S         3.92718689729158    0.29739963539559    4.08925075407829
Ni        5.05244472478234    2.14347874081221    4.37449708260844

