89
CSD_code = NOFVUB | q = 0 | S = 0 | Stoichiometry = C24H57N4P3Ru | MND = 4
Ru        7.57772533044465    8.41769507320968   11.07391248704999
P         8.26633530940853    6.39962861773565   10.31208543174781
P         7.23194134841528    9.65251152291939    9.10684307992270
P         7.30579335307422    9.77327378546049   12.85781543944110
N         7.37025079199558    5.12093143172801   11.02258046625902
H         6.99900885195703    4.46056374673252   10.34781031658131
N         5.79963277913285    9.10192473839360    8.36559455661871
H         5.80100733537230    9.19498402160430    7.35610348419728
N         5.73081690678169   10.00010452172991   13.49259847563154
H         5.61021370935159   10.93076557105545   13.88143824665505
N         5.12398067765889    7.58397353145269   11.29667469150371
C         9.97393362667779    6.23722618215783   11.12074413528919
H        10.63122628265170    5.57081689033374   10.55034911706660
C         8.74310668132454    5.47394542366084    8.71644352552030
H         9.64863980921513    6.00298072547957    8.38549335445497
C         8.59592031564355    9.35351188638670    7.80652820220710
H         8.95275901074540    8.35221341977499    8.09630356933871
C         6.86776816883491   11.49831988375895    8.89135934054906
H         7.72555168939468   12.01388387290278    9.33902438050019
C         7.89425661315913   11.58409243459539   12.72291851446961
H         7.11783682095809   12.03184497163763   12.08665735228921
C         8.05294000094979    9.33863371838424   14.54770684731670
H         7.76609842795683   10.15033162561229   15.22594857076131
C         6.35910686928391    5.51871262793052   11.97990894158586
H         6.81126136620216    6.29329558898829   12.61417478164216
H         6.10170972854209    4.65027725132887   12.59538458475978
C         5.08971257341857    6.11436839817533   11.34761261327658
H         5.00202551875702    5.72571370860947   10.32984751205927
H         4.19983021454375    5.77773384106037   11.90188673033029
C         5.20099591207255    7.85276853020295    8.81086983795512
H         5.97342437416367    7.09397940952894    9.00540133622389
H         4.53686989818438    7.48623334504173    8.02314995365056
C         4.40202358976092    8.05081555386024   10.10741009747719
H         4.21651390298896    9.11957064582890   10.20505932135783
H         3.42700761658949    7.53902063861179   10.03903383276929
C         4.53515219244702    9.59430162435683   12.77302037280129
H         4.39432386540711   10.14464534411242   11.83513804706943
H         3.68361362189859    9.83778099544717   13.42051719775559
C         4.47810190670486    8.08556324174299   12.51582355593085
H         4.95397390197842    7.59219341152747   13.36579642202152
H         3.41144739575971    7.79248853817749   12.49726267935098
C         9.85350313861895    5.71350788582093   12.54380696522273
H        10.83069831423546    5.68121334636671   13.02583462190305
H         9.42573193628145    4.71352495272559   12.55149852492336
H         9.20253327114362    6.36829308075670   13.12168535815973
C        10.56370470765228    7.64788734262660   11.09716822105183
H        11.49685527408192    7.69919673381360   11.65924904270750
H         9.83884676720228    8.35737568073667   11.53921124948722
H        10.76250116833936    7.96039390414317   10.07126585379309
C         9.08873408471684    3.99932727155540    8.93177262281402
H         9.74944787526028    3.65295949423146    8.13750365177548
H         8.19340321257466    3.38041763125002    8.90447318956122
H         9.58214825736807    3.83449232349334    9.88608404980798
C         7.69876081451720    5.60095008454744    7.61287390688674
H         8.06204356653733    5.13755310976372    6.69530349946170
H         7.48424660472941    6.64607915297618    7.40375594217972
H         6.76908806907926    5.10348024565209    7.89225463830070
C         8.20871334984895    9.28445619910300    6.33197522064237
H         9.07905856000936    8.97646469932728    5.75135695805463
H         7.87442663038103   10.24231315300253    5.94650270553470
H         7.42554534971669    8.54781790327394    6.15410439845507
C         9.75437847147015   10.31891797564682    8.03415789641735
H        10.63224112646693    9.99874437282075    7.47228949276408
H        10.01514837018929   10.34278255874251    9.09182995665626
H         9.50148705729153   11.32832766898198    7.71956450707140
C         5.63568599776764   11.77890975359298    9.74394089002458
H         5.52603762550816   12.84320403353726    9.95112884765851
H         5.72597943813784   11.23903017031762   10.68740324091770
H         4.74079325840685   11.43012368876708    9.23162402705868
C         6.63925122486149   12.04895544145409    7.48770826804987
H         6.27407497881025   13.07427496660466    7.56326491957872
H         5.88802033736065   11.46870432679910    6.95673048965399
H         7.55436558610685   12.07203607540262    6.90298102898163
C         9.20059627070552   11.62911050379415   11.93733236665264
H         9.35758706487556   12.61048922277855   11.49080614021555
H         9.15777944180186   10.88005182827635   11.13740114287413
H        10.05626489547879   11.40624669605622   12.57027709924097
C         7.98517141803769   12.41983815342494   13.99569032793080
H         8.13840602415957   13.46598098038562   13.72816586571764
H         8.82222928669048   12.11075419138214   14.61683602203042
H         7.07362013529735   12.36038336644375   14.58984035617441
C         7.42013536548832    8.05506070743027   15.07050712431972
H         7.80694951352432    7.81559308093030   16.06086098243963
H         7.64448041049208    7.22121089363444   14.40679679154820
H         6.34032559436520    8.16586015806181   15.13841059018920
C         9.56860183202632    9.20337753557518   14.52180933354128
H         9.93519432106765    8.89611705796646   15.50215859802524
H        10.05119248931518   10.14153149163587   14.26145388445027
H         9.86797322219283    8.45145861315090   13.79541778570696

