90
CSD_code = NOFVIP | q = 1 | S = 0 | Stoichiometry = C24H57ClN4P3Ru(1+) | MND = 5
Ru       14.75636403734282   11.91517325892074   12.25860584037062
Cl       15.46839135621277   11.55557943715862   10.08557140756539
P        12.48651995353688   12.23015968176077   12.02108849088471
P        15.39992387255580   14.11446626409043   12.42246741695735
P        16.03670816439797    9.23206347124757   10.98878187507628
N        11.70377233318987   11.33549988814785   13.22044237642980
H        10.69416248166681   11.37428738507918   13.11535633255384
N        15.37486298528106   14.70460570077967   14.01167638235972
H        14.52178738468690   15.21368368734623   14.22071526895199
N        15.57128625971218   10.03595092454561   12.32529763063307
N        14.63843813446220   11.57290989858214   14.43948778660970
C        11.76988709574968   11.30085311041918   10.57773815061253
H        10.68204976697347   11.30770487021738   10.71302731619117
C        11.50312388913697   13.84713151295720   11.95755566804044
H        12.00016564306673   14.47390170427471   11.21466254154946
C        14.63619435294572   15.58118747698266   11.56758708452777
H        13.66388923241490   15.65986837833101   12.06956328103785
C        17.25561827298253   14.13024922934935   12.11019156758299
H        17.56729961192965   13.12021400669444   12.42702347608101
C        17.79431831600795    9.46258744265181   10.41178109079307
H        18.31644855255362    8.57122304011681   10.78437180256991
C        15.98195131584978    7.41839638618338   11.44250938633233
H        16.58335373285029    7.23348338122821   12.34035705379496
C        12.09341636774431   11.31894483016516   14.61936943721567
H        11.40394652789706   10.64282914000303   15.13602060226633
H        12.00873614344122   12.29558828400885   15.10826772037639
C        13.48696109171626   10.71942022505591   14.79138464419121
H        13.50812237131454    9.84169596873856   14.14345536657810
H        13.59722369885479   10.39546785107441   15.83701853498404
C        15.73193330552363   13.79373887217247   15.07934283579056
H        15.86027022527554   14.38335148413028   15.99327846229362
H        16.70091080503828   13.35706222884135   14.83223298525896
C        14.70070386260085   12.69737636712384   15.38866624490613
H        14.91323359733423   12.30256315551811   16.39304778277198
H        13.72081612841474   13.17691902972125   15.41692041331372
C        15.93232428606724    9.56201644948008   13.65346396177576
H        16.95959179219382    9.17238159809272   13.69070030723942
H        15.27680133227467    8.75388315614918   14.00849228771788
C        15.86216559085323   10.75971231363376   14.60746133662394
H        16.72425229366235   11.40259947702582   14.40023421342983
H        15.93834157318252   10.40543550845170   15.64720740368380
C        12.25242985609343    9.85770193835192   10.64643860107610
H        11.98365883789760    9.32261533905642    9.73808956158638
H        11.81259535945673    9.34222922643403   11.49730540952667
H        13.33820147260639    9.83916533258510   10.75678074354508
C        12.11757316352390   11.95450802491947    9.24620491763053
H        11.62931866486766   11.42191019274979    8.43227912936490
H        13.19035103069531   11.92726906245742    9.07619853523327
H        11.79272919914714   12.99189325016065    9.21679449912240
C        10.03574171594143   13.69958559990476   11.56759313700829
H         9.54134543986765   14.66122609180508   11.69754467615963
H         9.51849877881396   12.97958717963426   12.20063616787111
H         9.91495758017889   13.40604015831130   10.52951718032300
C        11.60633085742238   14.50633201776322   13.33209910126321
H        11.38202263747878   15.56986943051495   13.27491574845916
H        12.61364474050078   14.37757943718246   13.73121650814130
H        10.89586205112828   14.05623990942167   14.02370909988836
C        14.38366622631404   15.25895803710350   10.09709830649270
H        13.60363256661180   15.90212407032782    9.69450677022454
H        14.07452574038962   14.21667249353543    9.99201484408295
H        15.27735885045583   15.41000800635005    9.50030817011070
C        15.36266988785246   16.90672342805186   11.76235812322726
H        14.70983858607302   17.72057410498548   11.45140015984027
H        16.26183665435883   16.95960831951807   11.15664002489631
H        15.62735870959239   17.05902170930836   12.80574259937187
C        17.57192402904360   14.27111686643912   10.62298075138814
H        18.60593415699701   13.98530894200928   10.43493022007491
H        17.45471545202544   15.30205768545519   10.30269415478713
H        16.91851587721089   13.64495806470364   10.01891894956662
C        18.05594759444351   15.15060735708068   12.91565445489094
H        19.11683908985897   14.93669388457838   12.79386175590657
H        17.82229834149501   15.12318688075542   13.97522759069990
H        17.87561170625991   16.15780766290565   12.55661947468583
C        17.85366462860069    9.49265562582284    8.89008421039122
H        18.88843879126089    9.56447283389387    8.56158410551451
H        17.31101778554677   10.35332500703453    8.50430336037523
H        17.42098811301601    8.59106492798922    8.46254332674600
C        18.45439589624764   10.68473705273475   11.03694591950789
H        19.52933712163841   10.64693902239016   10.87097024257114
H        18.28182324793971   10.71287154973808   12.11504741221235
H        18.07364203697900   11.59805480731363   10.58913933105428
C        16.49316565997810    6.53755749787345   10.30850051265557
H        16.29308551605475    5.49298733346011   10.54019609883826
H        17.56398473469226    6.64132940309181   10.15205729552603
H        15.97817316710817    6.77808424300465    9.37881389831891
C        14.51669178313897    7.08265267724314   11.72078233301683
H        14.42264913871229    6.06911377239911   12.10516247872448
H        13.94008392084663    7.15034214512570   10.79859675075021
H        14.06900894942449    7.76322796051782   12.44381452187537
H        15.17004691538043    9.08983836014531    9.91935506905023

