75
CSD_code = NOFVAF | q = 0 | S = 0 | Stoichiometry = C32H30N6NiO6 | MND = 6
Ni        2.69715904826007    3.56976245629885    2.24901090637842
O         2.11304925151890    1.89718323643024    2.82240038859346
O         0.02256195217305    0.50674288476963    2.38505610300190
O        -0.14086376898632   -1.29048883751030    3.54386939191501
O         1.14381682241139   -1.13933831883710    8.11857577587528
O         2.68198199657830    0.22726071425915    8.74861819092804
O         3.31483244213002    5.24432064941017    1.69552682913727
N         0.31542642360531   -0.17911266552223    3.34688775864383
N         1.93626067612924   -0.24145817704413    7.90707801302808
N         3.79096617094006    3.79092171518073    3.77508580708590
N         1.59891840876229    3.37998588769495    0.70983690655194
N         4.67101622497420    2.66203216328630    1.09070073706328
N         0.82212903964089    4.43393594928097    3.57797410332414
C         2.07334898166549    1.44941471156820    3.99234425176159
C         1.21109135910739    0.34628683967847    4.32770339386377
C         1.18154438810424   -0.21127590821397    5.58947167560392
C         1.99104415050093    0.30714067563999    6.59287100271005
C         2.83715419766264    1.38303141834138    6.32949800330776
C         2.89256805103668    1.96351110691544    5.07587048817988
C         3.75965858119823    3.08249329988707    4.85709998513747
C         4.64252403545147    4.86808368721847    3.58875910954362
C         5.73694804048605    5.22130609742694    4.38264392221743
C         6.50021005281883    6.32329216880490    4.06163240977340
C         6.14682973756529    7.09188752939480    2.94319497161791
C         5.07811119328578    6.76835085289285    2.14713756617421
C         4.30414329343505    5.62532636303997    2.43427265566158
C         7.69714113446016    6.70861618089267    4.87970737814262
C         0.65795739564876    4.27888571690596    0.43493097081955
C        -0.29813451411536    4.09709701772682   -0.55647201835594
C        -0.25018265777606    2.91559153150455   -1.28983139789983
C         0.73953550972097    1.99067321014713   -1.01230904287059
C         1.64769184652784    2.25781612217380   -0.00146883781919
C        -1.35257350557196    5.12656240784604   -0.80994912803192
C         5.56576047251176    2.24668365031788    1.98388213650429
C         6.87491903297690    2.70663420660725    2.04870119825594
C         7.27053780683436    3.63530858208124    1.09178743731545
C         6.36837181770745    4.02951358580474    0.12014123657902
C         5.08122510611692    3.51847944988373    0.15898445853450
C         7.81661038855074    2.24315893890697    3.11403312608804
C         1.17746368921866    5.18146737059192    4.61854648291386
C         0.64232475588591    5.01347979400429    5.88570408460421
C        -0.30957591325377    4.02819555863404    6.07922613346610
C        -0.72612432909174    3.26461140570959    4.99304303508198
C        -0.13028756121415    3.52303463073646    3.76394481031518
C        -1.77031643520640    2.20522617731191    5.14423681157150
H         0.51650639189749   -1.03727292648159    5.79867638379203
H         3.44383456704877    1.76576061703607    7.13764976609778
H         4.41142018751637    3.33468672134766    5.69197443000798
H         6.01414522779105    4.61818990384774    5.23546000662349
H         6.74753826056794    7.95721146369448    2.70011162178571
H         4.82562344483850    7.35764543862002    1.27923436115986
H         0.66781811985299    5.18107907458575    1.03308850978377
H        -0.97950625560634    2.72820299262181   -2.06468596887101
H         0.80475262146222    1.06658622011186   -1.56409296466611
H         2.43057351521898    1.55605077404908    0.24971621865940
H         5.21461961552387    1.50375261632920    2.69176316312748
H         8.27473192517454    4.03429456610156    1.10813862273333
H         6.65362551347937    4.73164642191107   -0.64747791425998
H         4.34198444956573    3.81349160687717   -0.57383131143741
H         1.92151808562567    5.94439097722647    4.42552020144871
H         0.97006315589423    5.63662333999104    6.70336460529535
H        -0.73404446339622    3.85512051732943    7.05796113826904
H        -0.41619701387158    2.95077074776059    2.88968075061248
H         7.55542967143793    7.69545304658221    5.31963979847483
H         7.86831145345797    5.99585188660225    5.68259096859667
H         8.58931269608578    6.75049939150746    4.25542839432497
H        -1.13849578138775    6.04234899277732   -0.26645780976732
H        -1.42008766436973    5.35170937669976   -1.87254432862032
H        -2.32338214949393    4.75165144602120   -0.48760595398761
H         7.34737491602377    1.49777096931864    3.75099547944784
H         8.71264262226235    1.81197850561707    2.67043209782193
H         8.12316901921571    3.08824324232567    3.72965811095919
H        -1.48381138513134    1.49638262127311    5.92023375915720
H        -2.72019936818902    2.65033607121947    5.43849451739591
H        -1.91504616889401    1.66831133893897    4.21052412373667

