105
CSD_code = NOFVAI | q = 0 | S = 0 | Stoichiometry = C39H61FeNOP2 | MND = 4
Fe        9.08523359187330   13.82066368701566   13.61417128185433
P        10.85777930529910   14.73881480475695   14.47680628952151
P         7.44560371697967   13.21793415851075   12.33527076732936
O         9.84614977687464   11.79127755583206   15.16749677602398
N         9.52386290763284   14.94417314280287   12.11249139042642
C        10.61666649010258   15.75353205789294   12.00728267133054
C        10.57264781192886   16.43131622331112   10.80673944227400
C         9.39329116397704   16.01150836708232   10.14752957335412
C         8.77597889463395   15.10416860330681   10.98296643444752
C        11.60993673715322   15.76484094779106   13.12729824316876
H        11.82530723591381   16.78138382407015   13.47543336228730
H        12.55432896547191   15.30896888028124   12.80867709619931
C         7.48425674547375   14.35525788776489   10.87213492955090
H         7.40477466670133   13.79685232232355    9.93257963265863
H         6.63590222940542   15.04727287844272   10.92788845764294
C        11.53698818277595   17.40912501383024   10.21942222062432
H        11.89073232919393   18.11052580257685   10.98235999471636
H        12.41739480521837   16.87966198207458    9.83382683712375
C        10.86162685327168   18.16707225521282    9.07555209649915
H        10.11989648817308   18.85654509883733    9.48636141428039
H        11.60423469955717   18.75596974897561    8.53107367555937
C        10.16342226713749   17.19602762237283    8.12408605724706
H        10.87625811595746   16.42783277799808    7.81434456000988
H         9.82782548518303   17.72544608610847    7.22865546233324
C         8.97041495689589   16.53166213845956    8.81274841453406
H         8.16633783015234   17.26820985924331    8.93613499113292
H         8.57451349293367   15.72301311481655    8.18960179853848
C        10.07202586092193   16.02043182231061   15.58017035839178
H        10.69536596614754   16.91964590119713   15.67684787403679
C         8.75860220477162   16.37278628090653   14.86665423307249
H         8.19017134825964   15.42727171682683   14.68960024912008
H         8.97228855527743   16.82872410633480   13.89637571135574
C         7.89325043678076   17.30819791218626   15.70279473456085
H         8.42092847380707   18.25484194250890   15.84608186065785
H         6.96134912828851   17.52152010756650   15.17523236252010
C         7.59896299048400   16.68165306755982   17.06121360518116
H         6.98387264716048   17.35571949743099   17.66079205875871
H         7.04373785585405   15.75213078564920   16.91812905332843
C         8.90505766389482   16.37928228459889   17.78681424245786
H         8.69620312805128   15.92601236727482   18.75782033076375
H         9.44569171114545   17.31317459411950   17.96345402879482
C         9.77384388745836   15.43444921441677   16.95995011720047
H        10.70434956907000   15.24252111692364   17.49789954677893
H         9.25148386192355   14.48210179097075   16.82569879967654
C        12.30668035720872   14.07638134486981   15.43240283968352
H        11.88307174128374   13.62884940756864   16.33984980904272
C        12.95188803144467   12.95633164035835   14.61516734696917
H        13.34132617563274   13.35681947319856   13.67529192773225
H        12.19247828577368   12.20853166070678   14.37329541175050
C        14.09480823796552   12.31803080357458   15.39888622122742
H        13.69794752878176   11.85486019405537   16.30541084616987
H        14.56465567379264   11.53420472284751   14.80093974968797
C        15.12953393341114   13.37142717085033   15.78450922988561
H        15.93533602875400   12.90996257615965   16.35930307910964
H        15.56743537130487   13.79768650606974   14.87871819003723
C        14.47913115999165   14.48315727583669   16.60308561794155
H        15.22419479521620   15.23797239142392   16.86449391959622
H        14.08675617681880   14.06453309106843   17.53321610964218
C        13.33966159440567   15.13186873859675   15.81890922386715
H        12.87601697296745   15.91523764561168   16.42269376152277
H        13.74643846088112   15.59682599802387   14.91836723343889
C         5.64508994065422   12.96223620737864   12.70805563437760
H         5.60883227490420   12.12661457770020   13.41769944404435
C         4.77831765217636   12.63846566951336   11.49465037387807
H         4.82812889899683   13.45839499437137   10.77509294327449
H         5.14042533984651   11.73411468017960   11.00066480653528
C         3.32738667666268   12.44443644993467   11.93142251095800
H         2.70458525167306   12.22818588301541   11.06058033022062
H         3.26434338551471   11.58932397919899   12.60871413986995
C         2.81069325504745   13.69154133763115   12.64356266728784
H         2.82524619534357   14.53581301927451   11.95013456159850
H         1.77690661221056   13.53666138165777   12.95897078409757
C         3.68043365437664   14.01722528474400   13.85510849880889
H         3.62070543777306   13.19681895511949   14.57391399279999
H         3.31212296168769   14.92060527828742   14.34594252613507
C         5.13297618369112   14.20927455175923   13.42927858492387
H         5.20383850841396   15.07718341356734   12.76800540360352
H         5.76683004997128   14.40090177836343   14.30097163197426
C         8.04063908619462   11.60971633295858   11.60915670138827
H         7.62947928432972   11.44111035612810   10.60423203226140
C         7.68559969395017   10.43737433647030   12.52322742298086
H         7.97913871448875   10.68924974929742   13.54494785317459
H         6.60695788036768   10.26738693071715   12.51519284324231
C         8.39583165561487    9.15719235855488   12.08960325722807
H         8.14284691105574    8.34995121312117   12.78021343241761
H         8.04987042892107    8.86612820440108   11.09389767745218
C         9.90575444179517    9.36432091437723   12.05797212331525
H        10.40582191105409    8.44082214670255   11.75853863619778
H        10.25336989739636    9.63106145238862   13.05813455416782
C        10.25311755645933   10.49070278400985   11.09116967153111
H         9.92218022978937   10.22162451252001   10.08443901611843
H        11.33410173651811   10.64174761087625   11.05898987856385
C         9.56400516837959   11.77927996660601   11.52321496844829
H         9.80783568735196   12.58763296751039   10.82909246485672
H         9.94542642231300   12.06888134619411   12.52628660215882
C         8.75894743932355   12.62536311259316   15.08347495522720
C         7.85216687613531   12.22728459276021   16.02540067018348
H         6.89495539486613   12.67413931727281   16.21577873758383
C         8.40253287243649   11.10869276794277   16.70950923204085
H         7.94855058654922   10.55451393216994   17.50795616541598
C         9.61849375848762   10.87639505785534   16.14961669245568
C        10.66464197512884    9.85387291303679   16.42644937037269
H        10.30878228676140    9.16523396860815   17.18770080266971
H        11.58337632810800   10.32494387594895   16.77859559162307
H        10.90470193647802    9.28997784593864   15.52423625795271

