90
CSD_code = NOFVOV | q = 1 | S = 0 | Stoichiometry = C24H58N4P3Ru(1+) | MND = 6
Ru        4.04256955586274   24.70133821667624    9.13336670055166
P         3.59666695535427   23.46966308378877   11.05046654961758
P         6.16252316137340   25.54973451159002    9.47522187911071
P         3.17307142694625   25.87086475791165    7.33256613677643
N         4.08413481238818   21.84500366693210   11.02966786164897
H         4.34831776913934   21.50509332929523   11.94868115888970
N         7.21637849021146   24.84293760903178    8.35704591670020
H         8.02496833638587   25.42283886564761    8.16282448467549
N         2.26894195436217   24.43201729895135    7.68690105929996
H         1.28397653675577   24.61458067903407    7.87570564865052
N         4.70391311545510   22.83011159680567    7.95414810976331
C         1.79233613384099   23.17328104396605   11.46409316480472
H         1.78855069633998   22.51338214256739   12.33783077668773
C         4.25700152456331   24.04242157450991   12.71719180727922
H         5.32674181290209   23.81081025611184   12.64490014939067
C         7.29289319270872   25.42246998219306   10.96636020704586
H         6.71565647377480   25.81477319192229   11.80908848079640
C         6.12702139982157   27.38598283277162    9.02556116328648
H         5.25296205715041   27.44123551104110    8.36075153000027
C         3.21918165716739   25.99393437848887    5.43651634519194
H         3.77402085729115   25.12238912065270    5.07201413842644
C         1.93931809321765   27.26033018216049    7.65946249379625
H         1.58780181786786   27.61203909173376    6.68602263679142
C         4.97369725339759   21.31937545840446   10.00738710116949
H         5.03419863597301   20.23721102262999   10.16520285678541
H         5.99396045446377   21.71524905507372   10.07915628094009
C         4.40373448955819   21.54054669992685    8.60896322067522
H         4.76785789925287   20.73153891412531    7.95687442511062
H         3.31964409558466   21.44523486737917    8.69567846495215
C         6.68716223755921   24.19583585025651    7.17102970201380
H         7.50758598424100   24.04482181786391    6.46529742635313
H         5.92179414412846   24.81029552355010    6.67080346336902
C         6.12196810391741   22.82324595241581    7.54992419384202
H         6.25330658702254   22.12317722943625    6.71153357070555
H         6.72397600902721   22.46420374366527    8.38518732025196
C         2.43725097584516   23.22053253460643    6.89165734589598
H         2.00225274558452   23.32398725013884    5.88656468070690
H         1.90457544387131   22.40269216342261    7.39169478270921
C         3.91121616032887   22.86147749480197    6.71352108153167
H         3.96376058939740   21.88357133868195    6.20820114550008
H         4.37043939566182   23.59215535946504    6.04634484526725
C         1.09978281632971   22.43046165050605   10.32906089292634
H         0.07525618885869   22.18891973891068   10.60792742319935
H         1.61791066934571   21.49770985749649   10.11272616370688
H         1.07099638377442   23.05097519305557    9.43579663326731
C         1.07705443953238   24.48364452207428   11.77868754436098
H         0.01104082185556   24.39828038187148   11.57544598744647
H         1.48886057857398   25.28633647226141   11.16698190484515
H         1.19209965361183   24.76172775128445   12.82214288522132
C         4.12587899314499   25.54896276296815   12.90620779095210
H         4.78691713965145   25.88677610130718   13.70210894211796
H         3.11149580877562   25.82803344470680   13.17234004152223
H         4.39057407820064   26.05575952985628   11.97924625270535
C         3.70208902029862   23.29610401142258   13.92908749278794
H         4.31363702324091   23.53336475791481   14.79814459760548
H         3.71919701849207   22.21495475389774   13.80011996164023
H         2.68385965916572   23.60141805687632   14.15284840485029
C         7.55647221336147   23.93470612426731   11.18166705329446
H         7.96141817981064   23.74939954076452   12.17443860289774
H         8.27071223123628   23.57140325660404   10.44588820563486
H         6.62638334689112   23.37932105199134   11.06647861321349
C         8.62775246161517   26.15842958624625   10.89321015961022
H         9.20414429840264   25.91773139425471   11.78565692686355
H         8.50737984661701   27.23637904918125   10.86552290445026
H         9.21014025950984   25.83864067867584   10.03254989253299
C         5.82691762160925   28.24350191785327   10.24974050165132
H         5.58084730272946   29.25827829491914    9.94292075344586
H         6.67533807111274   28.29263791552788   10.92521769314029
H         4.97770181634028   27.83258963252154   10.79110844618060
C         7.32844437670535   27.90783964331870    8.24132363476263
H         7.16774814001099   28.96090094072465    8.01516102595385
H         7.44283567802704   27.38533085758161    7.29217155901457
H         8.25607083127485   27.83011044075339    8.79955567358090
C         4.04163275654450   27.23030189659805    5.08307022783758
H         4.21353151381322   27.27380652421366    4.00932250897641
H         5.01026244909124   27.20511625225314    5.58449048987436
H         3.52780910803750   28.14256326807935    5.37807151228332
C         1.85083616414557   26.00443255531986    4.75402324291273
H         1.94848924067157   25.63889987024841    3.73336503134184
H         1.44193467676266   27.00995465735425    4.69721908934191
H         1.12693476160855   25.37282486880522    5.26890811346126
C         2.66676820818764   28.41190538752658    8.34848974038049
H         1.98645422913530   29.24842301812669    8.49484460584838
H         3.50774397954215   28.76188935262329    7.75243104320177
H         3.03538009744081   28.09015865500968    9.31998675253374
C         0.73097288849841   26.83680883987405    8.48784170817715
H         0.18165014846006   27.72601458315370    8.79106613376944
H         1.04700938276179   26.31911889896926    9.39252131689792
H         0.03795178048038   26.21309649366604    7.92285226778174
H         3.44875261101579   25.87447036696157    9.90130134303403

