54
CSD_code = NOGDAQ | q = 0 | S = 0 | Stoichiometry = C23H19Cl2N7PtS2 | MND = 4
C         4.04155643789739   10.37057710608433    9.28905429213525
H         3.73433186914496    9.77468291024688   10.14423079136110
H         3.48311203489175   11.30685485822257    9.29839276689116
H         5.10207882817261   10.59724179853301    9.37456664512656
C         3.76650224278624    9.59949414692976    8.03751220327143
C         4.09028051807883    9.11576405846512    1.93387832210351
H         3.67610601613161    8.38185485100168    1.24881869488165
H         5.14652878281899    9.24324258453121    1.70089495607357
H         3.57898050819250   10.06440110915759    1.78154933321444
C         4.30544974051395    9.99052560600672    6.75523349300098
C         5.01156541857410   11.17236547214445    6.53532983626843
H         5.25893450444815   11.81773984643296    7.36100168284018
C         5.36617498136050   11.50701999899449    5.23918642370399
H         5.91687788247935   12.41509507165057    5.04622195035578
C         4.99001882073517   10.69184665229256    4.18871066723631
H         5.24383384742144   10.96784551459150    3.18046835188505
C         4.29092893576083    9.50082322542890    4.44149701048643
C         3.90239519301611    8.62134996210077    3.34186633080430
C         3.20585154059222    5.40075388118095    4.45045077214698
C         3.04909535152550    3.57489388459639    2.73832758754832
C         2.96751298340724    3.40495085151782    1.35357929165275
H         2.92216278649371    4.27310125724486    0.71139001403588
C         2.94462396918652    2.14384729546717    0.79576390923811
H         2.88237911832104    2.01985980964445   -0.27382908987553
C         3.00275415926827    1.03306657777886    1.62357877275261
C         3.07930805294481    1.18399191301375    2.99840435189206
H         3.12071130488028    0.31467501044883    3.63513898024443
C         3.10007955433543    2.44767512405651    3.55636308479535
H         3.15851418879739    2.56168923361392    4.62533262930007
C         1.52869438403474    7.13010338619960    8.93290086908677
C         0.71993964834801    6.96206566462909   11.28526025831937
C         1.29275254252240    8.12318491427680   11.80068397863792
H         1.84679760439143    8.76677620029882   11.14008703392840
C         1.14406419893351    8.44079454478310   13.13649146538255
H         1.58857405458152    9.34019313489002   13.53283926202811
C         0.41919199165771    7.60348951717578   13.96942427300542
C        -0.16161867816977    6.44689423685024   13.47197133941386
H        -0.72589292053399    5.80103685187319   14.12555219920894
C        -0.01126880503942    6.13113305671423   12.13742851864522
H        -0.46221677085893    5.23060207729670   11.74768042639531
N         4.01553485777723    9.16658019358231    5.71378549138374
N         3.44341523150591    7.41525498527498    3.41564200420794
N         3.21002615156987    6.75971476939572    4.54615025816076
N         3.05910224210250    4.87598335960293    3.21408253159770
H         2.97040536894640    5.60468546680586    2.50791036800857
N         2.95753094389421    8.56389169431406    8.01193316337983
N         2.30735699576226    8.17594790855672    9.10400776141703
N         0.82354116127525    6.59196572839071    9.95452230830345
H         0.30687041105104    5.76240894717663    9.68839768799897
Pt        2.96667094549987    7.59394782433845    6.32835164929776
S         1.29883965700715    6.31920664546673    7.42230483669405
Cl        0.23334804720668    8.00443075508570   15.64097222118129
S         3.55355772915748    4.59493946544944    5.86920632631327
Cl        2.97663343520097   -0.55076093981589    0.92999971263121

