65
CSD_code = NOGDUJ | q = 0 | S = 0 | Stoichiometry = C27H31ClN4OTi | MND = 9
Ti        1.90819381316590  -13.74582608802281  -16.94289387392690
Cl        0.14038072332407  -13.14944138087909  -15.78173825317341
O         0.98989595259240  -15.27245584092431  -17.41829752219725
N         2.11979897116537  -11.85375269674636  -17.60556308333480
N         3.02781313082485  -10.44497652152773  -19.15602625464300
N         2.18600391188882  -13.89454497583801  -18.96890196463861
N         0.71133967420567  -17.03658081151927  -18.91141486697118
C         2.11019090259647  -10.59576468369857  -17.07852819146834
C         1.65258511919683  -10.09961893007315  -15.85842494490167
H         1.18434449730690  -10.75565414879763  -15.13900076374623
C         1.79507773228926   -8.74983632873473  -15.63131235674620
H         1.44700274843095   -8.33020356322973  -14.69845603267054
C         2.37577176882728   -7.89437613469360  -16.57936370550299
H         2.46286110775957   -6.84319483446925  -16.34567332890126
C         2.82243844237746   -8.35913390722898  -17.79320674538001
H         3.25919808596752   -7.70474637978786  -18.53092395855973
C         2.68832434725866   -9.72263728680995  -18.05366615420180
C         2.67135393568405  -11.68104604650258  -18.85403191767425
C         2.66855963193391  -12.86379529439352  -19.67241320043792
C         2.97196734771470  -13.01748356365708  -21.02713829782874
H         3.37090943840155  -12.18294700158158  -21.57977999788179
C         2.72121175949606  -14.24491425049602  -21.61833642365778
H         2.95127487785237  -14.39305297378739  -22.66319153337259
C         2.13155751253767  -15.27518043777174  -20.88999138304598
H         1.86554226112053  -16.21927169350056  -21.33440340536659
C         1.86728743494504  -15.04661953654228  -19.54674875210452
C         1.13618284242043  -15.88910366713347  -18.56197596896847
C         4.25042782119088  -14.20161284045355  -16.94728949045220
C         3.55583905185821  -15.32848407756188  -16.42822140774011
C         2.87238307689992  -14.91315450912637  -15.25248089423127
C         3.19489910460247  -13.53677034358071  -15.01536105719558
C         4.05927598906645  -13.10769243495132  -16.05294916864834
C         5.22238002099274  -14.21575618337927  -18.09048022088380
H         6.23162427558744  -14.40557686032835  -17.71661022492550
H         5.23481166342475  -13.25692268348262  -18.60951430486905
H         4.97894246479362  -14.99689591782159  -18.81041401881552
C         3.67075177874217  -16.73430239191292  -16.93797860457620
H         4.57110520904764  -17.19909349284950  -16.52769643509760
H         3.74187115094039  -16.76510843855167  -18.02571945609873
H         2.81440259548138  -17.33339771124302  -16.63463811007477
C         2.08460448128069  -15.77952196532403  -14.31463694741490
H         2.72882328233917  -16.15118217334456  -13.51362606903373
H         1.66036988608898  -16.63607714483649  -14.83689072215341
H         1.26999335316993  -15.21083923870545  -13.86580570083481
C         2.85012641589333  -12.79853322425996  -13.75512450129057
H         3.36488003996223  -13.25973222904466  -12.90894854338420
H         1.77747709274180  -12.83760104316889  -13.56269799734925
H         3.15608225759817  -11.75677274019241  -13.81611119372281
C         4.84043943555339  -11.82754872947857  -16.10001435769633
H         5.83524389710368  -11.99617400068268  -15.67974392452500
H         4.35595299077793  -11.04141670154955  -15.52502517761283
H         4.96764629142354  -11.47172397232018  -17.12178338113526
C        -0.04805859939823  -17.82833175421864  -17.98155457382171
H        -1.09394379862561  -17.79917560214027  -18.30839616163471
H         0.00086651927902  -17.41892451808463  -16.96132693145897
C         0.44003800760800  -19.27783646040280  -18.00552027684104
H         1.50348423489921  -19.30073934899743  -17.75597891052320
H        -0.10006580340099  -19.84176625962989  -17.24154877046032
C         0.23067704779451  -19.92095396607460  -19.37295797568336
H         0.72682862035739  -19.30375533274285  -20.12246247981190
H        -0.83661164312670  -19.93256387591002  -19.60379144955949
C         0.77627217643251  -21.34243833777136  -19.42194409044054
H         0.61080309006413  -21.78255481155331  -20.40252331510263
H         0.28380394662632  -21.96685268769575  -18.67906694822115
H         1.84508460366144  -21.34965701826815  -19.21876332541635

