80
CSD_code = NOGFEW | q = 0 | S = 0 | Stoichiometry = C29H43Cl3N2O2Ti | MND = 6
Ti       -4.82286412580167   11.26254835947833   13.02937195210518
C        -5.11477726588218   12.20671823849691   21.65749048071818
H        -4.11741894646733   12.60826975488300   21.49343927116121
H        -5.05248249799456   11.12901470078615   21.78897083144925
H        -5.49857028473607   12.63360527598684   22.58229969130840
C        -6.07721567774641   14.10336853672520   20.38758959174318
H        -6.93983172298906   14.43277901477413   19.81944843698411
H        -5.16902617659021   14.45947813494642   19.90486629099363
H        -6.13810611843914   14.55190618201812   21.37755709131929
C        -7.46281812498376   12.07044949039489   20.87524694520145
H        -8.17277371662463   12.31355349071141   20.09095723136743
H        -7.79417615447570   12.53204014179680   21.80338408104397
H        -7.45133023016841   10.99049765231285   21.00950425741746
C        -6.05920201426038   12.57369703711692   20.50727863992135
C        -5.65339506558723   11.91672609041435   19.19064350017856
C        -6.45126231101453   12.01882587003175   18.04799436457483
C        -6.21304439607136   11.19384072141405   16.91881082006972
C        -5.02326740061258   10.45243802007772   16.87938117780430
H        -4.76659963752777    9.89679144388081   15.98435263844298
C        -4.13873566457496   10.47438159941240   17.93517184517737
C        -4.49944615585569   11.14398062171356   19.10009442517910
H        -3.83255942691149   11.07049539627540   19.94238562793489
C        -7.24344598095259   14.04777237206016   17.17213526990058
H        -8.20927182976815   14.48142017369138   16.91062633498559
H        -6.69111332048366   13.78119571476359   16.26798250600742
H        -6.65315502051307   14.78934752688110   17.71907976812870
C        -2.84112184759137    9.72995494335584   17.84654576574104
H        -2.48241174069161    9.72135568167546   16.81974355566265
H        -2.97578044363461    8.69618555358115   18.16721077337305
H        -2.08744874772547   10.18698688290175   18.48342191477208
C        -7.15121975094906   11.20660626997046   15.84520862695617
H        -7.95395808008751   11.92540504484294   15.89170197762178
C        -8.09103890560948   10.71681741581815   13.70152952650986
H        -7.99996675355323    9.95334249031927   12.92556040156689
H        -9.11421900424028   10.66795613273351   14.09732712884538
C        -7.87827662497444   12.12647933578595   13.14056829510013
H        -8.82431077112623   12.45792579274971   12.67919893605448
H        -7.64793437326586   12.80060827544221   13.97055700756971
C        -6.56507011451618   13.68390211516973   11.91759443000245
H        -7.48162894702618   14.16078681290036   11.54409941466609
H        -5.77446373334309   13.80351687086564   11.17664333164426
H        -6.25421930300031   14.17727613922626   12.83812786227510
C        -7.20438022744727   11.66507870757417   10.88319310267424
H        -8.12746014249511   12.14118376081268   10.52137793800192
H        -7.37868194812036   10.59507302568361   10.98182904452749
H        -6.41736193542599   11.82415871550862   10.14645480375031
C        -6.76129509415861    9.07640099320422   14.90399732442846
H        -6.66442057254369    8.71187505674467   15.91766334822630
C        -6.46421856292244    8.14684629098882   13.86168451214964
C        -5.80703279909463    8.52565882086176   12.65863407137790
C        -5.42792503194199    7.55016227435527   11.71267516775274
C        -5.76856018286548    6.23183176157472   11.97771257043030
H        -5.51308564422949    5.45984618835242   11.27265488785699
C        -6.40598111787577    5.83428530180221   13.15214631617806
C        -6.71906105677606    6.78697401120757   14.09347079561232
H        -7.18485975799896    6.50412769431336   15.02604135759759
C        -6.71527753345527    4.38387222757701   13.37085860040551
H        -7.19806035160418    4.22991762135034   14.33212842201503
H        -5.80055396811821    3.79357057231672   13.34212257402122
H        -7.37410853465671    4.01403652558868   12.58599448189862
C        -4.57420080183180    7.90681597149415   10.49864692327743
C        -5.18240720508978    9.07283267204920    9.70929005988072
H        -6.23160873807891    8.88174337247311    9.48742798079215
H        -4.65135924449119    9.19595317114541    8.76785478433970
H        -5.08400695780796    9.99932461854737   10.27143684957871
C        -3.18309358055881    8.31392248754875   11.00662190794582
H        -3.24684918048008    9.19234648186337   11.65143642005800
H        -2.53474337590721    8.55228392687424   10.16594564171453
H        -2.73418354321446    7.50194841174701   11.57533232556359
C        -4.40494882251438    6.72740270096008    9.53329118155155
H        -5.36816222215778    6.37163556879028    9.17391274728058
H        -3.86817222697281    5.90552964418823    9.99953428028813
H        -3.82306393049385    7.05333499876106    8.67383288997854
Cl       -4.88966893966804   12.89366420515570   14.48945903042745
Cl       -3.74433943238980   12.17008875569758   11.35461662851845
Cl       -3.02968107906732   10.37731443942102   13.99358993946543
N        -6.79125994568770   12.25210084925843   12.16065206380294
N        -7.18843016184885   10.35677286557838   14.80475118742937
O        -5.49194079495890    9.81536626477312   12.54318866024048
O        -7.51509694725968   12.91337172613517   17.98253715927975

