36
CSD_code = NOGNIG | q = 0 | S = 0 | Stoichiometry = C15H17MnO3 | MND = 9
Mn       -2.21095399947620   -3.41477550333763   -2.34312976787852
C        -0.83189580604668   -3.30113715760900   -1.23917620526086
O         0.06968826858607   -3.30690603151518   -0.52196207761463
C        -3.27430189020475   -2.67265019730792   -1.14304137778350
O        -4.00340626662876   -2.21451123853311   -0.37523077256600
C        -2.49625490257365   -1.29578469710326   -3.15305526821139
C        -1.28009901184729   -1.83522641629432   -3.60457375269127
C         0.02936118158963   -1.27168460210965   -3.21448959412805
O         1.04541215405518   -1.59848278897843   -3.79589119189001
C         0.04392212441656   -0.19620686103668   -2.14953208938977
C        -1.26379751720852   -0.03793942412677   -1.38251691491531
C        -2.48269473798807   -0.04063699095277   -2.30740074870155
C        -2.49433186913675    1.16820951043203   -3.25399285256873
C        -1.72722947089949   -4.88708170834352   -3.95365767761698
C        -1.66218901140339   -5.50138489350305   -2.68472123073177
C        -2.93764013445127   -5.39932016780595   -2.06837831294894
C        -3.80365391698111   -4.73465660175315   -2.97946359470982
C        -3.05338837466457   -4.40889006895140   -4.12215858391631
C        -0.66215532887373   -4.94016155549136   -5.00524633153467
H        -3.36111455998968   -1.35873162703402   -3.81823794684990
H        -3.38669695451109    0.00971258080727   -1.69218018813868
H        -1.23755178947555    0.89260572723712   -0.81303592950609
H        -1.37148526951708   -0.86587309070626   -0.67267147917015
H         0.30430492490835    0.73550969200131   -2.65986678160993
H         0.86428782192866   -0.41150216448997   -1.46261622398072
H        -1.23977804601272   -2.30586330235073   -4.58766319942924
H        -2.42101758456642    2.08889556502345   -2.68118585132056
H        -3.41932420293459    1.19368786854375   -3.82474258310996
H        -1.66341038633174    1.12047686237973   -3.95220297565582
H        -0.82714832530547   -6.07745881720909   -2.30965567514464
H        -3.24547937651230   -5.92069983199431   -1.17052431516552
H        -4.87496031161297   -4.63400295170653   -2.87235673637424
H        -3.45320066146559   -3.99310104638409   -5.03873536819179
H        -0.97986139515373   -4.42459783912772   -5.91094402165731
H        -0.45452398553588   -5.98082854720476   -5.26131956347700
H         0.26846861182526   -4.49040168346435   -4.65864281616157

