42
CSD_code = NOGPOR | q = 0 | S = 0 | Stoichiometry = C16H18CdCl2N4O | MND = 6
Cd        9.99301168126303    6.47396317745592    6.55911760782242
Cl        9.42037245266337    4.75614429884763    4.97650532345236
Cl       11.18004174007209    5.34060418421987    8.25890693159749
O        12.93266348399243    8.82824640483163    3.92139126613374
N         7.80107837286593    6.23970525448960    7.48125425831826
N        11.11341349190230    7.56611541544703    4.58554843366522
C        13.67363233716578    9.06170366126414    6.63994236483359
H        14.37419990902531    9.32168380176594    5.86201811639119
N        11.45132695919824    8.40389652588775    7.21088474176229
N         8.39669789109035    7.77029186021027    5.32220641542354
C         6.36599241694017    4.69599730847755    8.58705386971979
H         6.20188183832050    4.03640791024817    9.42428597875161
C         6.90439416518224    6.35705319924341    6.49549795494599
C         7.54301532778753    5.43006686885548    8.49231437020310
H         8.31652267124822    5.35586513061264    9.24817403679373
C        11.80198783310780    8.39333935935524    8.48975681211405
H        11.02496552884389    8.11815432888243    9.18926451493189
C         5.42454885562393    4.82058856464632    7.57855549236613
H         4.50148138195996    4.26090018878543    7.61227082909327
C        11.87765648910066    8.76517600366023    4.86677786716001
H        11.27120694144610    9.67167837635030    4.74021470322542
C        13.08162935490381    8.70516005029528    8.92203382048662
H        13.32277988227938    8.67487139758640    9.97231613751942
C         7.27663421689059    7.18951889309831    5.35520172709789
H         6.55615886238955    7.24247409559981    4.52964432277358
C        12.36825083411508    8.73366650594524    6.30526324709044
C         8.84661336896829    8.47229816160930    4.16468275936713
H         9.12331160956592    9.48331645808792    4.48049641546025
H         8.07275883379362    8.53645732071123    3.38409147913341
C         5.69401802665651    5.66651244014594    6.51512907469407
H         4.99201024042583    5.77845139765816    5.70286489997583
C        14.03808732080652    9.03605052275527    7.97641178077112
H        15.05028312617162    9.27096101527845    8.27108141067941
C        12.16047879077274    6.62476620696444    4.18448344603957
H        11.75901096229077    5.83421260649266    3.55351347166669
H        12.59134611684299    6.17230633358578    5.08550959100761
C        10.07258014614773    7.74963648706758    3.57820206494717
H         9.75053401107625    6.75227617848685    3.26908700825520
H        10.43628303177835    8.31177221503428    2.70653228384818
C        13.20810537041171    7.50697908013243    3.48044231996706
H        14.23097971995230    7.22806510979989    3.75007506403269
H        13.10855440496440    7.48336570012574    2.38989578648096

