75
CSD_code = NOGROR | q = 0 | S = 0 | Stoichiometry = C38H30I2P2PtS2 | MND = 4
Pt        0.95350906890660   -1.94986291821030   20.72670752816482
I         2.67903607090749   -0.90487232331571   19.11926047984203
I         0.00118245697624   -3.45516026726962   18.85744598652199
S         2.02080504209365   -1.29924008793931   22.85481986934402
S        -0.60457290456481   -2.77343561854783   22.33480012267720
C        -0.38762100373249   -0.21352867100607   23.13282318372070
C         0.31356469863710   -1.37462001842042   22.70832941956156
P         0.70785687501410    0.92031963109962   23.91634624218495
C         1.41412663885292    0.15084305208411   25.39454373281762
C         0.52307303923356   -0.46676800253131   26.26786404617857
H        -0.53930949977989   -0.43650563160968   26.05354514783783
C         0.99823114498936   -1.12223687152640   27.38853241832110
H         0.30704318195927   -1.60589195283448   28.06329592938727
C         2.36088130365753   -1.16473244890420   27.63600699873932
H         2.73307089849678   -1.68353298323536   28.50647590264258
C         3.24832016363840   -0.55749719817261   26.76085990634550
H         4.31051088013077   -0.60688971619102   26.94707636580089
C         2.78172544065289    0.09745269656271   25.63631800735248
H         3.47151416224767    0.54088180702050   24.93209356069861
C         1.95936345020567    1.86432900097062   23.00431464037995
C         2.12075100082328    1.75708221242383   21.63244543664107
H         1.52031816788251    1.05542790994626   21.07123989937764
C         3.07751130529146    2.52007173313144   20.98894292597029
H         3.21662467485584    2.40744969084618   19.92494509777559
C         3.86231914375057    3.39711273142126   21.71890896714029
H         4.61868991376968    3.98353168981939   21.21999164401768
C         3.68148527712611    3.52650841667862   23.08826962451966
H         4.28864472198142    4.21850547052322   23.65328544670158
C         2.72525370645563    2.76883677718155   23.73664786243606
H         2.56487915497360    2.87168300679767   24.80279949942261
C        -0.28072232710943    2.32781471618331   24.51806195595492
C        -0.68661481060628    3.24069596340469   23.54678885561429
H        -0.46592220131475    3.04165393174186   22.50546854005342
C        -1.34985856589394    4.39529049981827   23.90885228049035
H        -1.65682094630833    5.10063374725371   23.15150729885138
C        -1.60709690348485    4.65158080778775   25.24673492749087
H        -2.11785161919517    5.55846413632887   25.53317807929934
C        -1.19795635942105    3.75247403584924   26.21567386002287
H        -1.38772847839760    3.95690150536180   27.25907814798753
C        -0.52964169997631    2.59402219820721   25.85699836413873
H        -0.19468420683617    1.90796176053187   26.62190444894135
P        -2.08256519394578   -0.33227371184827   22.68031371174817
C        -2.95559679981366    1.21891159507544   23.04317930857513
C        -3.30777162571405    1.46307075317103   24.36821078587832
H        -3.00060792661233    0.76797728131809   25.13903911316653
C        -4.05127706826247    2.57987373805804   24.69215510121456
H        -4.32453383207114    2.76523519891556   25.72003860268163
C        -4.45640127061196    3.45362834975313   23.69478515777364
H        -5.04784586718780    4.32070531248615   23.94717071605984
C        -4.11126215738034    3.21143308629184   22.37639821100238
H        -4.43240538889864    3.88827136291501   21.59876587620608
C        -3.36356972797129    2.09459622702004   22.04566208496474
H        -3.10556211121395    1.90045285872460   21.01395717424456
C        -2.20179645504629   -0.54595718610651   20.88759463114828
C        -1.32857348460257    0.23445294893200   20.12432432799220
H        -0.67069865963409    0.94137892193515   20.62014187981490
C        -1.35443066466801    0.14787367049221   18.74317206453514
H        -0.67099153513007    0.73996355797135   18.15337013067899
C        -2.24479413845336   -0.71808039220602   18.12735354532639
H        -2.25137585232042   -0.80484284491460   17.05256761551688
C        -3.09464619983385   -1.50578563198703   18.88748047443002
H        -3.75853335719782   -2.20422032668022   18.40250806387178
C        -3.07620970161176   -1.43026932177309   20.26937866099192
H        -3.70613408983832   -2.07754065018055   20.86258514454784
C        -3.12037727391833   -1.48543387584176   23.62203892655105
C        -4.48057968566681   -1.51312057009158   23.32716364353730
H        -4.87556746680169   -0.86899838831062   22.55206104054396
C        -5.31628965016623   -2.35650838036370   24.03552708301435
H        -6.36924704077352   -2.39107201681899   23.79877281544386
C        -4.80413448115373   -3.15164573780271   25.04835507462913
H        -5.45854535937289   -3.81130438357136   25.59782248021547
C        -3.45518712133508   -3.09960084969137   25.36168492218524
H        -3.05824578786890   -3.71397434826681   26.15589248032526
C        -2.61071396652685   -2.26757433683980   24.65072328778538
H        -1.55421911742736   -2.23677633035570   24.88102321232163

