66
CSD_code = NOGTIN | q = 1 | S = 0 | Stoichiometry = C34H22ClN6O2Ru(1+) | MND = 6
Ru        2.23746520150823    3.35745065308608    0.56549542298801
N         0.20401506441433    3.47736316207437    0.09320180683735
C        -0.46016977254038    4.53735504010431   -0.39171980493912
C        -0.54154347669183    2.49215200965442    0.65775081477348
C        -1.83507160538774    4.70090298962543   -0.24149060652198
H        -2.30208982884334    5.59415193983059   -0.62370981673378
C        -1.92815959962987    2.55900005077865    0.78906801240505
H        -2.45348570245522    1.73136826954886    1.23741791843814
C        -2.58193393891929    3.69841274972515    0.36092466677061
H        -3.64905203886323    3.80018871780090    0.47394623466154
C         2.04293485975636    0.32637099100233    1.64313418167919
C         0.91782454528506   -0.47654406139222    1.92954581687843
C         0.25449973826969    1.40424939194979    1.14166365631553
C         1.52697269829146    6.35261954771851   -2.67957319204144
C         0.73651075662551    7.37610584589378   -2.11696130879519
C         0.27902130105959    5.49340178849783   -1.19792962256644
O        -0.06562937838018    6.80374435598933   -1.18016643779490
N         1.20160688911012    5.17565733362787   -2.05007832504194
O        -0.20418400276733    0.22969774764829    1.60645108526944
N         1.56838078966197    1.51960614879329    1.14585162854411
C         2.32369018479303   -2.20550422194583    2.67131784902343
H         2.46653813777677   -3.19524442791952    3.07577006129996
C         1.03601965135664   -1.75307252906062    2.44779438321321
H         0.16879472649041   -2.35488976424770    2.66190130668043
C         3.33161676525209   -0.14653683144722    1.87028566508445
H         4.18624580458945    0.47533563150771    1.65794000421912
N         2.94120690820628    5.03726505807054    0.08909341188411
C         4.29195740655125    7.36025602844967   -0.44810227273609
H         4.81155522941514    8.27885526793751   -0.66780236713302
C         4.44069289770030    6.26160295134994   -1.28160023314582
H         5.09823218323408    6.31327585471737   -2.13262818151512
C         3.50633029288374    7.26303795217979    0.69067604941875
H         3.42788095169583    8.09439228879942    1.37110952325412
C         3.74198109453780    5.09400982073512   -0.98869313427326
C         2.10427764753255    5.71102078606285    2.15790425109057
N         1.73581375643122    4.40768399572480    2.23723903354513
C         3.44433611747818   -1.41964496871518    2.38882167214331
H         4.42550636464944   -1.82330157741916    2.58314574730370
C         2.43361601394670    6.63887002472535   -3.69350319937341
H         3.01480830966162    5.85393991509039   -4.14769349078959
C         2.53315846604919    7.95502209194872   -4.09245988637062
H         3.22337555865855    8.21918873310279   -4.87863558246327
C         1.75898597713988    8.96285036927381   -3.51227680329501
H         1.87472122383775    9.97717540390656   -3.86038931676733
C         1.10337645201543    3.98920947793518    3.33008604189621
H         0.85034398901957    2.93603473751172    3.36844553503870
C         1.80831361001168    6.60803554788097    3.18279987078258
H         2.10526497359419    7.64012548318705    3.09515562631292
C         0.78644893190294    4.82331117496199    4.38619718738719
H         0.28016696171100    4.42926159868553    5.25198411775223
C         1.14152946358239    6.16374985264643    4.30884992483032
H         0.91069347919707    6.84305151755944    5.11392774175805
C         2.85489571838928    6.06087635588178    0.95319612148542
N         3.00114994601012    2.84879204105431   -1.20377780599753
C         3.75460444669213    3.84056072935723   -1.73892050287291
C         2.93693592823307    1.68286942154874   -1.83961558928231
H         2.32725515859904    0.91467851620992   -1.37743450379449
C         4.46965266711740    3.64648362853756   -2.91937921150197
H         5.08161943020907    4.44124427494996   -3.31370014858987
C         4.40101782005965    2.42886986222263   -3.56840126625408
H         4.95220677231959    2.25937928985174   -4.47982252523936
Cl        4.36500213874112    3.03599180991695    1.46361421488454
C         0.84063070398320    8.69605765454931   -2.51447394850711
H         0.23061165121763    9.46718828683966   -2.07413149917469
C         3.60974038681511    1.42786500657342   -3.01981660188188
H         3.52468520123014    0.46322120741144   -3.49281940044397

