57
CSD_code = NOGVUB | q = 0 | S = 0 | Stoichiometry = C20H25FeN9Se2 | MND = 6
Fe        3.40045521249287    1.83447417898335    3.74265850519929
N         5.98358270891274    3.02515566709318    3.04134551022194
N         5.12348410507926    2.91681752888255    4.08112934505843
C         5.70804277823006    3.49225954163303    5.11933262154888
C         6.97288991401231    3.98252908147782    4.73741632566474
H         7.67436426430144    4.49151223458250    5.36540953276614
C         7.12787902687048    3.66689249139072    3.41217174259333
C         5.09981661111206    3.57865008606283    6.46586763440245
H         4.04937776482205    3.31211105141139    6.41706162968432
H         5.22214974627854    4.57977000737107    6.87406203927913
H         5.59711389360683    2.87454009276301    7.13290948542644
C         8.25750827712956    3.92679250582700    2.48428215225531
H         8.69731394077270    2.99494945690416    2.12796500084186
H         9.02658555883692    4.48334245636342    3.01171269027550
H         7.93857705101232    4.51495489225224    1.62325101732649
N         4.43571020099693    2.98331253811938    1.25563362729448
N         3.28218599334722    2.84140147615245    1.95010639274355
C         2.32006785229219    3.35040025644846    1.19804403908913
C         2.86829605720546    3.83379622282807   -0.00675681690403
H         2.33289163065653    4.29685776513290   -0.80951959920314
C         4.21489781818255    3.58122329535693    0.05040661235964
C         0.89283126049462    3.37157678242039    1.59048732562893
H         0.79440510730852    3.14191321822976    2.64624585521701
H         0.35322406749554    2.61028070219779    1.02726490989142
H         0.45090818439314    4.34013278024527    1.36615609984472
C         5.29206306495428    3.86692718463912   -0.93075657574063
H         6.06991959187343    4.49495459450577   -0.49550307762072
H         4.86539663505390    4.39139377750478   -1.78064384181570
H         5.74883368633196    2.94642003621401   -1.29519465230506
N         5.54503989867949    1.00784767479439    1.90058299299990
N         4.60267748013474    0.49698858800130    2.72470794068221
C         4.68464225060562   -0.81916329957663    2.63883933908356
C         5.71159248412352   -1.16242544487837    1.73383998075289
H         6.01252892775068   -2.15261061783767    1.46077831228431
C         6.24152151864500    0.01621063239610    1.27657940842707
C         3.80751009451900   -1.75267992872177    3.37742018360196
H         3.28395106775565   -1.22245140454331    4.16650168475653
H         4.39506873755437   -2.56503301386196    3.79910188072674
H         3.06977179861686   -2.17690284791223    2.69681785554441
C         7.34078873900617    0.27310864181499    0.31186786295161
H         6.98307969138630    0.82297417050165   -0.55920603825458
H         7.74075084016781   -0.67756777749928   -0.02799882978206
H         8.15033940715829    0.83839973158228    0.77436595866360
C         5.66475324724692    2.43513734528648    1.76833991579455
H         6.47197590942526    2.65940627487253    1.06354944344749
N         1.90106663354705    0.78227220685510    3.22201763534659
C         1.32766355669894    0.21040639956253    2.37933857358063
Se        0.46499201724521   -0.59587916181498    1.11946252521595
N         3.73204525153571    0.85369283825367    5.34056929223701
C         4.46957392213792    0.40809829423818    6.13063493447881
Se        5.55987688006303   -0.21436209728499    7.31499825208155
N         2.31006152398734    2.93531490661616    4.64893127929560
C         1.51117522769330    3.43230228432096    5.31665750717605
C         0.52315809036957    4.06428147322534    6.14448675360670
H         1.00089286129214    4.52341382295423    7.01005672589342
H        -0.18914330899896    3.31438901224038    6.48799824621437
H        -0.00812675239532    4.82938939342183    5.57821485211291

