88
CSD_code = NOGVIQ | q = 0 | S = 0 | Stoichiometry = C36H46ClN3OPd | MND = 4
C         1.83569010901701   12.04011084936198    5.47370141337712
C         2.06814095233509   10.73635370346930    3.67318848079691
H         1.85527993702072   10.35513907716447    2.69754009609908
C         3.07888674253347   10.45231798860586    4.51995897202728
H         3.87431577249691    9.74089866391400    4.44298939226845
C         0.14660954849489   12.28629264097895    3.67446807048036
C        -0.92152209563395   11.46439280598049    3.28317068659170
C        -2.04892966404916   12.06332691943133    2.73662354225337
H        -2.88146768667428   11.44805247697680    2.43565183004361
C        -2.12600519239754   13.43074701318253    2.56938199848940
H        -3.01856005061564   13.87633018745899    2.15603163463546
C        -1.04476836689791   14.21933748118582    2.90132047073792
H        -1.09205788510929   15.28198210914708    2.72330941073192
C         0.11094420537986   13.66863894645476    3.44340632425285
C        -0.89676708429550    9.95338651907310    3.37017117959794
H        -0.06290552279918    9.63522863276341    4.00256759575027
C        -0.69737154681696    9.36086527084185    1.96955585085686
H        -1.53905512175909    9.61654945526099    1.33027326147175
H        -0.62565121296463    8.27701946713342    2.02903155941067
H         0.20420004244535    9.74114294293947    1.49445846184698
C        -2.18697008880224    9.39193992412157    3.97609421863275
H        -2.49292696362486    9.98053609442555    4.83564944584591
H        -2.02976158157985    8.36254543338626    4.29132963378230
H        -2.99665684154943    9.39659805901801    3.25102454129054
C         1.30482982139917   14.57476621579176    3.64582430631752
H         2.11730814002483   14.03753376823312    4.14741562372044
C         1.83230354559793   15.03885302826936    2.28480348842121
H         2.10850732747184   14.18473883211181    1.66901998186392
H         2.71295528998187   15.66026205755125    2.42704625568072
H         1.08257220557018   15.61700779053943    1.74930781471086
C         0.94167885886975   15.76997047450091    4.53123623360639
H         0.25969898542946   16.45229003684526    4.02803907120732
H         1.84910598871284   16.31098149715459    4.79132203129841
H         0.46182171161624   15.40175541503715    5.45240989135939
C         3.93979533388109   11.33245721849408    6.62461372504152
C         5.24230130198375   11.67645906090858    6.23118476012740
C         6.23976407641657   11.67584668829460    7.19583969723973
H         7.24645320531032   11.94246539583793    6.91521233633031
C         5.96764523095580   11.35559918383935    8.51066628449353
H         6.75867634699564   11.36649901662926    9.24581573926917
C         4.67903796459772   11.03696252108609    8.88362930199724
H         4.46821757963230   10.80208436207631    9.91535392908793
C         3.64600122577894   11.01585976625907    7.95420243950985
C         5.60949635911788   12.08307407154355    4.82079529435919
H         4.71093406007503   12.11650186052140    4.19932420565491
C         6.20983095790653   13.49102688386404    4.80458193795963
H         5.52995469626815   14.18053146820548    5.29817578627052
H         6.35868774550668   13.81637526132060    3.77695103341507
H         7.16796077015409   13.52097383592302    5.31588339368061
C         6.58433198285558   11.07587354510236    4.20294592774446
H         7.52354566905961   11.06477518011630    4.75006386286416
H         6.79373849801152   11.34669633013021    3.17035651988689
H         6.17529261018935   10.06706443524791    4.21731816397831
C         2.25301076157821   10.66825194720736    8.42644968206140
H         1.56124223427016   10.68372271824212    7.57683646063854
C         2.20331145474021    9.26589636571299    9.03653369025807
H         2.54789580733211    8.52417424522811    8.31838357402450
H         1.18068403126958    9.02492447511030    9.31862139372432
H         2.82802997644317    9.19758541039035    9.92339454899012
C         1.78004161183893   11.72565962037164    9.43289040101851
H         2.35596662880494   11.67247323700131   10.35411445718158
H         0.72743652061095   11.57269180655739    9.67050247429476
H         1.91470730027579   12.73216225405286    9.00314176758319
C        -0.52163446800778   12.46776171659822    7.11356574902404
C        -0.92828938538188   11.17479427088583    6.79637840555703
H        -0.34977865241691   10.57281434685284    6.10751993834772
C        -2.06091110404468   10.60185895975062    7.35457695189175
H        -2.32747917724904    9.58209984729071    7.11189602468317
C        -2.84415008888354   11.32208966327033    8.24007097693245
H        -3.73121155110478   10.87976921874464    8.67015578813642
C        -2.46711134122933   12.60149637827367    8.59005680776014
H        -3.06284038209466   13.14592168723326    9.30723219127139
C        -1.30560324468094   13.16537198119969    8.05551910403950
C        -0.81822793787607   14.45616146194172    8.51729108527298
C        -1.60360792810110   15.25124783138883    9.51483342363524
H        -1.19994326082215   16.25683522525816    9.59829805930136
H        -1.54583506432361   14.77782762366364   10.49420628399503
H        -2.64779213992492   15.30474718696408    9.21406311470868
C         1.63851782950967   16.82027913431307    7.87000494095400
H         2.40579935349071   16.21721286904747    7.37813952308643
H         2.10680310872478   17.51113119486514    8.56859623401212
H         1.05796382124378   17.37949607728393    7.12824718026377
Cl        3.36706185198726   14.33493399298445    6.57814757263675
N         2.93032430935569   11.26375619730540    5.61872337257823
N         1.30655897899284   11.71357849097300    4.26887860758638
N         0.32700871209138   14.84577325709143    8.06876297253408
O         0.78765750690781   16.02224540073048    8.66760829160914
Pd        1.20205603300672   13.40743604246125    6.73882184200643

