57
CSD_code = NOGVIP | q = 0 | S = 0 | Stoichiometry = C20H25FeN9S2 | MND = 6
Fe        3.37731602283566    1.79970437538038    3.69467637377307
N         5.97267441359977    2.93530825890339    2.97696798773426
N         5.11030352922815    2.85838497785170    4.01840032150457
C         5.70627354028132    3.43987119875381    5.04731123560587
C         6.98000143120588    3.90060885353333    4.65799131899126
H         7.69076253227158    4.40734405985607    5.27747997276197
C         7.12897336393252    3.56290434043785    3.33738319086586
C         5.09657378216384    3.55789197763462    6.39098199324232
H         4.02749687807213    3.38385829316788    6.32748919583565
H         5.30172229689848    4.53796370925053    6.81643383704785
H         5.51940576861399    2.79966083028192    7.05030428216250
C         8.26229522372842    3.78790433972257    2.40443177998077
H         8.68061393955482    2.84281985224273    2.05688085692907
H         9.04450572430153    4.33326074002897    2.92423019284759
H         7.95486655974162    4.37370266124122    1.53740957894715
N         4.41074847129443    2.91776167129116    1.20710787989642
N         3.26163856832339    2.78809753680709    1.91010827480676
C         2.30787494952274    3.34974815848406    1.18465278898269
C         2.85750512097809    3.85384617478118   -0.01091501939545
H         2.32852479752648    4.35739234784340   -0.79356073593178
C         4.19715196446809    3.56185763411035    0.02365344123778
C         0.88892956278936    3.41445431414834    1.60771330841750
H         0.75320205338628    2.82545820258338    2.50908405873582
H         0.25270593918473    3.01301552788481    0.82150890241645
H         0.59530648725833    4.44709943712612    1.79243203852845
C         5.27398336323344    3.84572377938489   -0.95877447502099
H         6.06550916428023    4.45164573987616   -0.51646701783504
H         4.85265090294350    4.39387589255117   -1.79632245419125
H         5.71292337096679    2.92420389399238   -1.34238392252736
N         5.49266017433633    0.92346287954183    1.84421216585543
N         4.56564917819694    0.42993609771793    2.69538930345395
C         4.63966979526891   -0.88750030248371    2.62672419028128
C         5.64471068832325   -1.24953257227909    1.70405145967986
H         5.93408632953506   -2.24504189977909    1.43750348557788
C         6.17123102035990   -0.08029700682273    1.21917283649728
C         3.77556051782406   -1.80079170065396    3.40459693082394
H         3.33048098832569   -1.26060681408599    4.23480668852506
H         4.35292818470639   -2.64730855384650    3.76898297879484
H         2.97236992483451   -2.17491574440676    2.77036665726321
C         7.24868346503442    0.15915697190566    0.22526375173079
H         6.87312018614893    0.70454060007294   -0.64116768885824
H         7.63281974757920   -0.79746228489422   -0.11626027024732
H         8.07410613395189    0.72247586036060    0.66172649244872
C         5.63438122900916    2.34803045841173    1.70764046808614
H         6.43896112734833    2.55802939618649    0.99550871583248
N         1.84456145295369    0.74730993717980    3.20935241356847
C         1.30149279398079    0.04582111896371    2.43985307305894
S         0.51462377712352   -0.88312677645704    1.42181159757190
N         3.66810122819101    0.83045384567283    5.32307377062779
C         4.33568006452662    0.44653640618254    6.20897888598930
S         5.20826274148448   -0.06423723350025    7.43286434375025
N         2.29442357188498    2.91661826356440    4.58342218959950
C         1.48365157282026    3.40550774581477    5.24299784212982
C         0.48194615148137    4.02447069394868    6.06615500231511
H         0.94025484670576    4.43360019615580    6.96674819154986
H        -0.25695382825296    3.27648932853796    6.35291029483162
H        -0.01410278622226    4.82601230984262    5.51860504292851

