70
CSD_code = NOGVAG | q = 0 | S = 0 | Stoichiometry = C23H42Cl2NPPt | MND = 4
Pt        1.93053410730198    2.29608986480918    3.60034687165818
P         1.83595784393892    0.03405615527269    3.50778001788270
Cl        2.22622999298043    4.63376654540311    3.77337736757107
Cl        0.36138078855735    2.71389825915539    1.84398090925999
N         1.51102604772912    4.24705270162322    6.63266446454494
C         3.40773804794415    2.08984706135443    5.05878479559540
C         2.87991891082935    1.39052744588562    6.23093474709207
C         2.72336926632863   -0.01173413845190    6.17250739457985
C         2.38029119285046   -0.72449527687428    7.31810568623971
C         2.09788123216531   -0.02831096889339    8.48588600144829
C         2.11319615774335    1.35603060765554    8.53908813610381
C         2.51657256646184    2.07240978407452    7.41051950396154
C         2.30789555254832   -2.22535803216650    7.34440130693554
C         1.71984241943062    2.02592852676568    9.82701712993710
C         2.91378689255609   -0.69211223595540    4.85231407649905
C         2.69944701663430   -0.59056473024082    1.94819781981691
C         0.14664452473640   -0.77545074809355    3.78838965795765
C         3.26647977270828   -2.00634624001507    2.05320524789716
C         1.74299438983104   -0.49687334524953    0.76080637419172
C         3.84062675035657    0.40667259260163    1.71938090211606
C         0.16546019027985   -2.29983289931272    3.86016841256148
C        -0.85610820860130   -0.33797858201679    2.71988826656941
C        -0.31388261468163   -0.17611991570142    5.12076112254953
C         2.55985823675906    3.57883781195524    7.45786488028799
C         1.41553280542511    5.68509883430980    6.95599488346310
C         0.18902947340729    3.58988054815396    6.74513971298694
C         2.70126580369461    6.44457952545602    6.67212964988753
C        -0.67579452829912    3.80763498865864    5.51524884594445
H         1.80638056895679    4.23043626262108    5.57608804095297
H         4.20859682965070    1.50911395907585    4.59481194020654
H         3.81841958222464    3.06910408849801    5.30549424752880
H         1.83490811010769   -0.58415275868138    9.37408233788145
H         1.45665865315649   -2.59153784094974    6.77027187085797
H         2.19130278875278   -2.57423687192231    8.36753843273700
H         3.21467151643353   -2.66886133385174    6.93594901861511
H         1.41400601659237    1.27693098314715   10.55272427910440
H         0.88536906129351    2.71137063423303    9.68367442152264
H         2.55582628776546    2.57963031091374   10.25448749516029
H         2.73405459105663   -1.76227847167524    4.92152398411978
H         3.94008329024684   -0.54431998932665    4.50573884875865
H         4.05828763580783   -2.07232537226656    2.79562891149675
H         3.69149088407432   -2.28811183636558    1.09011043273889
H         2.49659053568328   -2.73134078496347    2.30244926691160
H         1.20236796895531    0.44790949094983    0.78553736584956
H         1.03036478581260   -1.31738136935927    0.76140090033458
H         2.30410921543354   -0.54442303599104   -0.17189082850510
H         4.59531343774406    0.34509967687283    2.50190010983450
H         3.44284193458302    1.42697471298803    1.69363267769458
H         4.33015420081659    0.20906218638538    0.76689070085614
H         0.86666175912218   -2.67410510287855    4.60143058095528
H         0.41210811395322   -2.73447710878374    2.89441207464885
H        -0.82837982217077   -2.65218304815975    4.13599545274518
H        -0.74928355937812   -0.90804518959047    1.80297511881877
H        -0.73506446339808    0.71795571514545    2.48698401422477
H        -1.86966166417786   -0.49248438521432    3.08812538840748
H         0.30771178555881   -0.49775280153102    5.95105422395495
H        -1.34306331983205   -0.46449452017127    5.33011519270990
H        -0.26885800112667    0.91166068780207    5.05049333603484
H         2.43169364367460    3.91892271604383    8.48600197101540
H         3.52641960427106    3.93120484529136    7.09648072420591
H         1.12758825968763    5.78983414345581    8.00788840332957
H         0.62526069814202    6.10289481318568    6.33223811510858
H         0.36305815146947    2.51925611372614    6.86640630551481
H        -0.31051413518069    3.96435213589628    7.64476018528200
H         2.51210947760147    7.51055239913122    6.76083601017532
H         3.02536198137763    6.23600900718854    5.65609684635981
H         3.49334967435509    6.18543488200806    7.36871761688534
H        -1.62176017242435    3.28831720684821    5.64180023284618
H        -0.18201492326546    3.40207946824341    4.62695862002493
H        -0.88529561503578    4.85857124188635    5.33830094653403

