103
CSD_code = NOGWOX | q = 0 | S = 0 | Stoichiometry = C57H37N5O3Zn | MND = 5
Zn        8.70774767607084   10.82405184575365    4.80339577827187
O        10.17232995513926   15.81952704381103    4.81540221499855
H         9.99215137554810   16.75348396188154    4.65440123639635
O         7.21966706350166    5.49643067910049    5.27581735565679
O        11.29754689165940   10.46516240635492   -3.87968462998724
H        11.72833973987550    9.63081207178008   -4.10107355622822
N         8.31477827546336    9.56972962824638    3.23487377629179
N         7.59685199674782    9.60927200125627    6.01788921816503
N         9.40360254140314   11.78288967991857    6.45828166116842
N        10.13016872425866   11.73631355842571    3.67073380667656
N         7.14012377098112   12.27410812046516    4.42177385331868
C         5.87697531157555   11.88784265677343    4.30436025054816
H         5.69294432470223   10.83098670941912    4.43013765490628
C         4.83782404687540   12.76576913239433    4.04548686773611
H         3.82680425549717   12.39991974293318    3.95660649811490
C         5.12884960917380   14.11366081694285    3.90723628512573
H         4.34605339997560   14.83000252947186    3.70445157367855
C         6.44702397021666   14.51923715357812    4.03890461362522
H         6.72273006645629   15.55768893986793    3.94497575502556
C         7.41876452464345   13.56491540279303    4.29510664124916
H         8.45564265405359   13.84655217889118    4.40709442339965
C         7.99475951269174   10.73098107870405    8.16245235569283
C         7.61376569509877   10.75692881914475    9.59104346120940
C         7.86140708473404    9.65866088098192   10.40916878341970
H         8.34341438770469    8.78687115494199    9.99089086350610
C         7.50724312261423    9.68551407815012   11.74576440099021
H         7.70889985689482    8.82854626311753   12.37203331720122
C         6.89635014885034   10.80682979709555   12.28188265941642
H         6.61851166892849   10.82646092161106   13.32544877088616
C         6.64315759545477   11.90305398325408   11.47434294436727
H         6.16430517375863   12.77936214672499   11.88721305310978
C         7.00118206110088   11.88016054982510   10.13866711188295
H         6.79890145321148   12.73229490879644    9.50531371187825
C         8.95700228357716   11.64466785722362    7.73105356855211
C         9.63166802654833   12.58139152034505    8.59116901998794
H         9.48666695179261   12.66485911252509    9.65085250420846
C        10.47060552544288   13.29551690603703    7.80595674291689
H        11.14110722555689   14.08313098589176    8.09206268266560
C        10.31746361248720   12.78479714411482    6.47066134405313
C        11.02465878904105   13.25827493132457    5.36859583286515
C        11.92050801135268   14.42303953260924    5.57858704460184
C        11.44973589106669   15.68660743430586    5.28646182483185
C        12.26793778940692   16.81416155478039    5.47612100523568
H        11.87253090980480   17.79443850508600    5.24051094088560
C        13.54077550083417   16.67543030595532    5.95125513871712
H        14.16546238286904   17.54477056185611    6.09612700491589
C        14.05987804229265   15.40213451496130    6.25836641924280
C        15.37124587475858   15.22750968300064    6.74752207327136
H        15.99011727320404   16.10201914179631    6.89126461618138
C        15.85021023395326   13.98030575089643    7.03275715036161
H        16.85559720437869   13.85395939073857    7.40689297149397
C        15.03843330806634   12.85114690140989    6.83923223162076
H        15.43269662222162   11.87151629140895    7.06638166578510
C        13.76329049346326   12.98528424542747    6.36787327452535
H        13.13624094774227   12.11924973903619    6.21643712859950
C        13.23745292910419   14.26053419231584    6.06762634208063
C        10.94513936685163   12.74136536001732    4.07792901678382
C        11.75469053634324   13.19447773012946    2.97998485923455
H        12.49589381427468   13.96842512399587    3.03885889389350
C        11.40808058358130   12.44407257875743    1.90879847777614
H        11.81349961635848   12.48143554387087    0.91637033213091
C        10.37941552333354   11.54038182220220    2.35241400313146
C         9.76287945001703   10.58941399316166    1.53777867017160
C        10.16694325547031   10.54256886191492    0.11606316293111
C         9.92291689426642   11.62357973253714   -0.72736074818200
H         9.42280104667968   12.49680709058557   -0.33475610866173
C        10.29839928231465   11.58761335048318   -2.05446820696802
H        10.10687047175021   12.41968356169633   -2.71338951303362
C        10.93770394342491   10.46261578102980   -2.56649664186151
C        11.18891783169470    9.38017665043767   -1.73210482747071
H        11.68950815313550    8.50400044373462   -2.12414859863517
C        10.80328226372324    9.42166934843781   -0.40543135538017
H        11.00835555329392    8.57985858767059    0.23932448055267
C         8.80214932720500    9.67567351629762    1.97193310292802
C         8.16734567064550    8.70473642991987    1.12024762682679
H         8.35308103352778    8.58629196892142    0.07061517934692
C         7.30810627938298    8.00571021874781    1.89668459322798
H         6.66421758438788    7.19586852218331    1.61283757906722
C         7.40748607428328    8.56093947011221    3.21920604604894
C         6.66803757077279    8.10805996419581    4.31210546846799
C         5.73632041759146    6.97064702491346    4.09456929808074
C         6.06762279493348    5.72542459600587    4.59463026440512
C         5.21258989243454    4.62345753922640    4.39888494706284
H         5.51973558333341    3.67180025153215    4.80325971829855
C         4.04091055222603    4.77161568188986    3.71830527255277
H         3.38554343204200    3.92582272916303    3.56987307443413
C         3.66117570351222    6.02622981471155    3.19674337881264
C         2.45248452296943    6.20298527935466    2.49333931197540
H         1.80743693417165    5.34694403951966    2.35369381667419
C         2.10075855541170    7.42693856492656    1.99756967548783
H         1.17322589810169    7.55379310793545    1.45866363452952
C         2.94713044082656    8.52941281259392    2.18712029625998
H         2.65999579853202    9.49261884210770    1.79001733883428
C         4.12587346318154    8.39132457723678    2.86449878478063
H         4.77731259285050    9.24206581936288    2.99962610926809
C         4.52103424964771    7.14047283007335    3.38551318694664
C         6.76106555616089    8.62008574122803    5.60843041700153
C         5.94938823458312    8.17449295158209    6.70929634043659
H         5.19211107323241    7.41610031675603    6.65310405712722
C         6.32106332887974    8.90750164441322    7.78438482085801
H         5.92338636312911    8.86558610460919    8.77958941482102
C         7.36031378395461    9.79793011077063    7.34126573848020
H         7.71129593774355    6.32565692360332    5.36396437125212

