92
CSD_code = NOGXIT | q = 0 | S = 0 | Stoichiometry = C36H45BN6O2PY | MND = 10
Y        10.85346083650702    7.08895232729531    7.06310487364515
B        13.32605684167423    9.48969603508878    7.13450399905381
H        14.15981176923235   10.31957006121925    7.17354286499953
N        13.98267992133061    8.11219693240101    6.91695005831624
N        13.28078062010807    6.95531081485283    6.93475220122802
N        12.56025670343421    9.47016534490262    8.47189145230837
N        11.64737791284095    8.51726165489856    8.78883786115980
N        12.37153536924870    9.77898123649064    5.95981729926844
N        11.39573400456900    8.92256136728987    5.57842052154608
P         9.89438064661547    4.89989771386412    8.69551133735211
O        11.22045699698695    5.97757107288961    4.66880769506736
O        10.68671724744777    5.08045119839505    7.35392004183208
C        15.29281261822431    7.85333980980064    6.73723714497564
C        15.44127108911616    6.48334476179194    6.64031888167742
H        16.35225963686680    5.93793074338200    6.49748148929792
C        14.15311794442292    5.95890378875893    6.77561785709583
C        16.35633628363048    8.88956366824586    6.65556346426497
H        16.15819138276287    9.58425420539329    5.84135865060607
H        17.31462830339493    8.40750770951650    6.48066221477207
H        16.41476849788541    9.45912294540172    7.58117732415192
C        13.76654548836332    4.52269737321050    6.78060758025836
H        14.13073707550088    4.04481814125844    7.69087452477097
H        14.21127603363775    4.00742203049701    5.93015611307155
H        12.68329181423717    4.42572820741566    6.75412038119740
C        12.78516059055334   10.26200663762074    9.53807893212177
C        12.00219685400898    9.80198597604671   10.57870750485051
H        11.93963809021229   10.20328057459968   11.56972141386195
C        11.31158581084817    8.70080009881784   10.06902017615983
C        13.71497094094451   11.42238572081787    9.55149169953307
H        13.64840849339629   11.92316413979983   10.51369328897733
H        13.46020195062118   12.13197523827012    8.76697668480690
H        14.74269681576756   11.09906706625912    9.39617302670883
C        10.38591614799821    7.81037343764631   10.81732645285012
H        10.95917522432061    7.13582792136482   11.45514238330732
H         9.78428026015211    7.21130169524719   10.13382962108310
H         9.72954484877446    8.40134442944755   11.45335237397054
C        12.42483320128043   10.82740836344403    5.11695439328882
C        11.45406580601348   10.64034880580146    4.15195676219459
H        11.22341578563475   11.28517177888995    3.32835767490558
C        10.83504403920548    9.43288345479609    4.47851560966073
C        13.36826815755110   11.96969994590907    5.24107642989028
H        13.16391911013418   12.69068857595558    4.45395661734326
H        14.40010616143579   11.63541251951676    5.15111677436208
H        13.25455341570095   12.46057770579201    6.20543653827934
C         9.71800468669041    8.78789348859151    3.73457698994134
H         9.90754723149667    8.84511738753507    2.66327989629717
H         8.77881015371704    9.30558200328042    3.93273975612038
H         9.61151042238785    7.74863926761129    4.03264686415449
C         8.61283706969536    7.94745305405891    6.94373069707898
H         8.72707940546262    8.88033800316347    6.39279163930573
C         8.18142167404801    6.70977378770775    6.33670856622569
H         8.22761042132906    6.47012387350006    5.28202763068914
C         7.51377199033498    5.96867812048693    7.29426770298520
H         7.06343134760073    5.00107746737548    7.14483201908648
C         7.46524812031922    6.71853879766264    8.48668715166663
H         6.98197639485573    6.40739507565734    9.39718486235136
C         8.10435983180675    7.92413322087024    8.27749338309654
H         8.16215626464264    8.74962145453588    8.97119837086045
C         9.04709085913631    3.28118335094632    8.46902272710952
C         7.99863961945398    2.93567920671971    9.31172512955603
H         7.70719785025275    3.62037641973238   10.09620580862673
C         7.33549579527270    1.73402784894177    9.14336839234734
H         6.52069287957573    1.46725786646307    9.80203485805971
C         7.71090357339848    0.87264017468193    8.12460684176288
H         7.19024249925880   -0.06494968644759    7.99018559371600
C         8.74993514038518    1.21702304038392    7.27560595142097
H         9.04170777748383    0.54540062875297    6.47947645194757
C         9.41393321809668    2.41791539450100    7.44752718181203
H        10.22614225082034    2.69881345394288    6.79156896494002
C        11.22628603611372    4.28184503037006    9.84409909114867
C        11.10615008767843    3.19872555276343   10.70514392250657
H        10.20855390668712    2.59720356046542   10.69318764773144
C        12.13739833295725    2.87664534824171   11.57087897165690
H        12.03689096400000    2.02661467827098   12.23138134264034
C        13.29651651801755    3.63400805233530   11.59366499559857
H        14.10001532496469    3.37654615545018   12.26898086782277
C        13.41788334738552    4.72778291674106   10.75128927523754
H        14.31613298106040    5.33036293628124   10.76965255407820
C        12.38343984925298    5.05257899450740    9.89381753180617
H        12.46608467938521    5.91951252276970    9.24196337734126
C        12.25527519052841    6.17964045234212    3.71155609181165
H        11.88428440168869    6.82709143895179    2.90452078255637
H        13.08205965720037    6.68328681313298    4.21409695248879
C        12.63797696496855    4.79354715473657    3.15724164632439
H        13.64198386681970    4.50761822230647    3.46274730398949
H        12.60170921078390    4.79397807271931    2.06866724787083
C        11.57819973728380    3.85520619662348    3.75092016592608
H        11.19292254368885    3.14199462392124    3.02590340214767
H        11.98236841894548    3.30856176157886    4.60147115288285
C        10.50282060550569    4.82899884678218    4.22814683785344
H         9.83751390450469    5.10235999547115    3.39433023464227
H         9.91332025041325    4.46260474219694    5.06882498268901

