55
CSD_code = NOHCUI | q = 1 | S = 0 | Stoichiometry = C25H26N3Pd(1+) | MND = 4
Pd        1.46711517991739    1.50269334780438    2.61894078786755
N         1.18212996795952   -0.72839666304080    2.46949882863876
N        -0.45201579988268    1.40430772724548    1.92608376550453
N         3.35555078337970    1.65497026947871    3.27636262242891
C         1.97808738337978   -1.75160128273062    2.70737129015505
C         1.63936253703010   -3.07403166731080    2.40502369767066
C         0.41737726319477   -3.33748519999738    1.83877086935672
C        -0.45402007317909   -2.26843636357937    1.57044926294695
C        -0.01986237517635   -0.96336974782770    1.89797855170577
C        -1.27428394311495    2.41934813994137    1.72301541560996
C        -2.55992188928139    2.27178545310720    1.19846241950565
C        -3.00705977839591    1.01828338246856    0.86214992356964
C        -2.16478771259518   -0.08374700702691    1.08168229061944
C        -0.88408336825012    0.15480983638022    1.63309237768958
C        -2.56426862345315   -1.41345149172012    0.76486471769122
C        -1.74048705670462   -2.46271884124628    0.99299131506865
C         1.70543145672869    3.53414989932253    2.46704010377628
C         1.22658207105711    4.19434637192790    3.76004729284627
C         3.21591548143155    3.76633881143680    2.26969759103601
C         3.94514804141464    2.77916179579968    3.11772248156541
C         5.24218249762612    3.15547380955381    3.74517104889442
C         3.88376979986756    0.59404350665768    4.03663302347775
C         3.25236379017381    0.25780335481581    5.24388397521865
C         3.75742667722959   -0.80014425309411    5.98508709214885
C         4.85210102526098   -1.51968537574830    5.53735048644499
C         5.43610712533704   -1.21062620433442    4.32155677502796
C         4.96104404351478   -0.15902808786803    3.54895173756094
C         5.54731541108999    0.13225098716562    2.20023303872134
C         2.05545936419668    1.03385544525545    5.70874325493600
H         2.93334932987440   -1.53554120673917    3.16498370942044
H         2.33804116837040   -3.86432513359301    2.62619667100133
H         0.11371254218521   -4.34505786565653    1.59806837507845
H        -0.91887393891602    3.40793017879566    1.97980532864214
H        -3.17784391075326    3.14349355249702    1.05723123291932
H        -3.98789161708429    0.86494176732951    0.43904961082094
H        -3.54370986694829   -1.55890450315997    0.33605777375461
H        -2.04187207695458   -3.46964697948966    0.74853125987110
H         1.16397971136442    3.95897836863162    1.60656099229991
H         0.20958500892597    3.88649964865284    4.01860183484195
H         1.22680245839890    5.28165263937687    3.65632701140532
H         1.88455133339427    3.94285547577980    4.59282268977787
H         3.48464967390399    3.58386751078287    1.22268070719909
H         3.50260205585737    4.79465809349059    2.50981997800354
H         5.10043093140126    4.04580538668567    4.35686069194066
H         5.96608014637221    3.41314932781260    2.97308450706985
H         5.64175737958970    2.35861349324642    4.36721339408325
H         3.28833247285860   -1.06064226643842    6.92139623863777
H         5.24023168668006   -2.33357647900984    6.12897834476605
H         6.27042778036405   -1.79199001214744    3.95978896206095
H         6.02920102644214   -0.75615615832480    1.80039788290817
H         6.29886097084952    0.91867354484268    2.25928436666694
H         4.77093788910169    0.45555296771678    1.50443032393698
H         1.31172977056995    1.14371306887060    4.88649761887620
H         2.34987787444301    2.03204299386325    6.03663456625937
H         1.57907091994473    0.53031263336237    6.54563989007000

