55
CSD_code = NOHDAP | q = 0 | S = 0 | Stoichiometry = C24H24ClN3O2Pd | MND = 4
Pd        8.45633911425301    1.17687000281647    0.71449555545667
Cl       10.38678207819160    0.26210061931827    1.28588318634168
O         8.12312992169269    4.56866058749996    3.79526773694258
O         7.79657320060729    4.38180818786129    6.01918580579723
N         9.27754581918963    2.62442887829091   -0.61788752504553
N         6.77167060550736    2.08545777549681    0.08369239525767
N         7.47439245441083    0.49193112005143    3.33181178246141
C        10.56362890517252    2.85672782968611   -0.84148702761081
C        11.01061080564262    4.00416395503414   -1.47659373963387
C        10.07414048567842    4.94578198494171   -1.87737916275972
C         8.73274746512758    4.70509753289739   -1.64024446347257
C         8.35369143739194    3.52119688942229   -1.00628437704198
C         5.52786798454943    1.71181211899575    0.38076000951815
C         4.41028523488828    2.37982266513043   -0.08097220044937
C         4.58639310941852    3.48684972893104   -0.90103206227586
C         5.87373880108859    3.87467060823021   -1.21910795495183
C         6.95963312601495    3.16311026220865   -0.70886720429878
C         7.61251926612655   -0.05403726085657    2.04671201352886
C         7.22521716006572   -1.29690770712447    1.76111783152554
C         7.12512280327568   -0.35474787320262    4.43038145694915
C         8.14548112089384   -1.00346964792676    5.12605197414381
C         7.79556538346004   -1.83406072380055    6.18214814966177
C         6.46979635944075   -2.00866662732592    6.53505312815421
C         5.47121237114015   -1.35302362699207    5.83790755096862
C         5.78476422573335   -0.51712967814389    4.77505807912493
C         4.71312828096796    0.18831068744508    3.99944554941485
C         9.57179025671040   -0.78433811109925    4.73878722121840
C         7.72613235036015    1.79477062349874    3.56677000541409
C         7.62150797992218    2.45359098601994    4.74385491614865
C         7.87862150510933    3.87362292631428    4.76352713391081
C         8.03251477400427    5.77157334082403    6.13520493045856
H        11.25072332817182    2.09207197185763   -0.49410402056384
H        12.06430858608343    4.15781131326560   -1.64373056980534
H        10.38382442853852    5.85893488123934   -2.36292106484147
H         7.99699407816422    5.43768806360663   -1.92870404875925
H         5.43366319091984    0.83622435558718    1.01106653094879
H         3.42484738930075    2.03969688041415    0.19305242856367
H         3.73883322056879    4.03201748992848   -1.28646202175046
H         6.03402952564419    4.72093473602275   -1.86659162330316
H         6.78652436600730   -1.96389905138960    2.49230892487317
H         7.37351055738125   -1.69895835526671    0.76784220042576
H         8.57148193663059   -2.34634781644444    6.73167844079400
H         6.21253666473774   -2.65777003591139    7.35902017834238
H         4.43707923439356   -1.48987475351378    6.11893254317456
H         3.75905108666125    0.11936963043688    4.51557409280895
H         4.60547775498342   -0.26799838622355    3.01498977816238
H         4.96578159815438    1.23837005813708    3.86158121912427
H        10.22935218169178   -1.45265455365764    5.28760956620655
H         9.86292598308645    0.24453575590669    4.95055759569153
H         9.71444676614935   -0.94393849828888    3.67060184552668
H         8.04435272386954    2.39341259974153    2.69357909112666
H         7.35192631460622    1.97809315303734    5.67188459771646
H         7.95569297494098    6.00778854426820    7.19383848067756
H         7.29080972221703    6.33497948707909    5.56318429541563
H         9.02658200100324    6.02353447578898    5.75795084460572

