95
CSD_code = NOHJIF | q = 0 | S = 0 | Stoichiometry = C38H48Cl4N2O2Zn | MND = 4
Zn        0.00052414321321   43.02347553648466    7.81696636933422
Cl        1.85651714938372   49.03737397248869    3.70127653007322
O         1.22384420096420   44.01987709300990    6.59143882680099
N         3.78974692341751   43.60163486913954    6.33150729723302
H         2.88412133815103   43.31116733192058    6.73115014302745
C         1.36334970491067   45.13660736762956    5.99334926568414
C         0.28678438453414   46.04343106903261    5.80423892582983
H        -0.66429730804790   45.77942794957914    6.24083303951041
C         0.44387587993196   47.21194012805130    5.11830379478500
H        -0.38827941178062   47.88541998921303    4.98142002997235
C         1.69660246725670   47.55480879487343    4.58051775414915
C         2.77694941580709   46.73889432877877    4.75769663582287
H         3.74244596327367   47.01382019046468    4.36047028266326
C         2.64849490353386   45.52414984326761    5.46837592407479
C         3.78628070531657   44.72159152225599    5.67490758771261
H         4.73383257146538   45.06524967871227    5.26715146497913
C         5.01566476774106   42.55469622107400    8.09128573365915
H         5.20344916210530   43.50950483399298    8.57803991353550
H         5.82236128064289   41.87785531899514    8.35057512528366
H         4.07663987152526   42.15725438051813    8.46962403481064
C         4.93368203507000   42.76222711081979    6.57975782942628
H         5.82622365968148   43.30127247503700    6.23247572089068
C         4.83393204446963   41.44929151169657    5.74755506542404
C         4.61954497963097   41.80789153486698    4.26961080220899
H         5.43764433023605   42.44289301009664    3.91718505266375
H         3.68602639419059   42.36226233075516    4.14884416371976
C         4.55490244720443   40.53862022165004    3.41971265467465
H         4.39867191084319   40.81811923070728    2.37143510275110
C         3.39332032273938   39.66776189600866    3.89524022769746
H         3.33320564663175   38.76473231357369    3.28371893277403
H         2.45081978875448   40.20962554847785    3.78618593344594
C         3.61499328715970   39.29694573511334    5.35988040788957
H         2.78686687019128   38.67335411592120    5.71213992792667
C         3.67474417545176   40.56600137368532    6.20996123991054
H         2.73636732777861   41.11301960621017    6.11757813629170
H         3.79399296740429   40.29381173508914    7.25759630481839
C         6.14572549439046   40.66513979810438    5.86868582615055
H         6.32089512374496   40.38298336079765    6.90717571024191
H         6.98337851296548   41.28643847749628    5.54065080528828
C         6.08022772446675   39.39636891602805    5.01772953685591
H         7.02337317353972   38.84813907365981    5.12181112046067
C         5.86541778783754   39.76670875967424    3.55227867515705
H         5.82901188220265   38.86270758262673    2.94108326202001
H         6.69728905933911   40.37847906490270    3.19494892149657
C         4.92416476506204   38.52273796775404    5.49977164089528
H         5.07909304386001   38.24215741668402    6.54355435861141
H         4.88111099534444   37.60539811855779    4.90860959812746
Cl       -1.56628540439445   44.30242421754031    8.69465786536236
Cl       -1.85784179139048   37.01080991864732    3.69974544923533
O        -1.22260195290953   42.02805953713956    6.59011806730292
N        -3.78895645657904   42.44670462786397    6.33125768965802
H        -2.88334631631089   42.73727093612838    6.73075664480202
C        -1.36268861185894   40.91135633656519    5.99205839951781
C        -0.28638614243978   40.00431986356493    5.80212875388417
H         0.66504828354340   40.26817201151908    6.23803279699008
C        -0.44405208273541   38.83590248081952    5.11611489988420
H         0.38792924031052   38.16232511110130    4.97862620678371
C        -1.69713813576696   38.49328852576760    4.57899560546630
C        -2.77721521451813   39.30938012842851    4.75686129813854
H        -3.74296385989123   39.03466879001425    4.36008412716854
C        -2.64815219582958   40.52405294954572    5.46759436118668
C        -3.78570747926883   41.32672825019297    5.67467241509955
H        -4.73341262997924   40.98318751156554    5.26716484781359
C        -5.01468155967441   43.49368525734042    8.09115033390136
H        -5.20243634490214   42.53887229022007    8.57792884038664
H        -5.82151196804983   44.17036631912497    8.35038834964796
H        -4.07567008438210   43.89132205913920    8.46948721531491
C        -4.93298332699338   43.28598770081598    6.57962713380304
H        -5.82546642359127   42.74671569988349    6.23252972851692
C        -4.83372794106153   44.59879013076775    5.74716043496940
C        -4.62044556390969   44.23988819594731    4.26911964339742
H        -5.43886181579594   43.60490517472839    3.91739550246847
H        -3.68705710236375   43.68542333723330    4.14775336240325
C        -4.55633786234821   45.50904238832727    3.41901173360842
H        -4.40088601148013   45.22938143701695    2.37066321691287
C        -3.39437198990954   46.37991686023368    3.89357259204301
H        -3.33467989468777   47.28286848012365    3.28190390660111
H        -2.45195792546499   45.83802899814202    3.78390622826432
C        -3.61494704357290   46.75095457713746    5.35832166728162
H        -2.78652887438904   47.37455723401414    5.70986143576247
C        -3.67405532173075   45.48200342025092    6.20859851290108
H        -2.73574212852903   44.93497023068706    6.11537940816044
H        -3.79241089848090   45.75433881214467    7.25631168492255
C        -6.14538238832884   45.38306208149721    5.86916077011318
H        -6.31975198351443   45.66546342873760    6.90771712785179
H        -6.98331985435810   44.76175615826936    5.54188382540665
C        -6.08048902826165   46.65165610860421    5.01792691703253
H        -7.02353875866758   47.19994211424078    5.12259649238236
C        -5.86671977666620   46.28105204083175    3.55239269984759
H        -5.83073614670809   47.18493815058399    2.94100851058360
H        -6.69888222591381   45.66926854766329    3.19578311629926
C        -4.92399805797347   47.52522961489639    5.49903017222252
H        -5.07817875995305   47.80600485508538    6.54286895983392
H        -4.88131261187681   48.44246688132120    4.90769634238898
Cl        1.56730655998395   41.74522151308550    8.69568906973911

