87
CSD_code = NOHKIE | q = 0 | S = 0 | Stoichiometry = C31H52ClP2Rh | MND = 4
Rh        0.71758872396027    2.14848636070952    3.73330578659129
Cl       -0.84679180459511    0.96954241355831    4.91967444758251
P         2.09110996504094    0.32471491072840    4.19896895943012
P        -0.97237639446953    3.74033217213231    3.55783163200844
C         2.01279480496082    3.11650757942595    2.73137747009507
C         2.48037852415537    2.63689206827698    1.44535080113179
C         3.81126824956107    2.81659419777610    1.03512769188028
C         4.25859371901414    2.30855375846937   -0.16796858927264
C         3.39174887817533    1.62734425353770   -1.00811385223418
C         2.07288699216163    1.43977156897455   -0.62218203154340
C         1.62844245567492    1.92402438022258    0.59029210121369
C         2.58345329458217    4.36045806651302    3.20757370116150
C         2.95004498504482    5.38759239150885    2.32314889689824
C         3.44800894366960    6.58571983004904    2.79418083517246
C         3.61445645152329    6.79040579785702    4.15499542293472
C         3.25677073880016    5.78912064805365    5.04576566718558
C         2.73729188374165    4.59948827570751    4.58061207880918
C         3.87069060856247    0.39973099261120    3.57495166124996
C         4.65448365718804    1.46461132761871    4.33776940715070
C         4.69156038308692   -0.88516770690182    3.47972615431915
C         1.58712288722229   -1.34710426512752    3.51258995550803
C         1.26667946917561   -1.14359581246041    2.03397864085439
C         0.40770110874277   -2.01819927817161    4.20960094512241
C         2.11723130154935   -0.00949085692616    6.04134383354583
C         3.11765387554138   -1.04149997870058    6.54672979895258
C         2.22500030366581    1.30098584315140    6.81813030645701
C        -2.53423701720386    2.96404463620899    2.87581371375917
C        -2.20075462653480    2.01869754490071    1.72382640209558
C        -3.67795380729101    3.90307072878784    2.51281332816281
C        -1.60421310066378    4.52514144222507    5.14139962814591
C        -2.48325509638679    3.63399725948232    6.01356943084107
C        -0.38547373045690    4.98474371956161    5.93740955274840
C        -0.58935731098098    5.29982890877692    2.56565752677331
C        -0.45461423760932    4.96154912025299    1.08338405851304
C        -1.46465576905608    6.53948504279375    2.74204332163405
H         4.50152817519078    3.33097675732462    1.68882182294181
H         5.29102154751602    2.44731523033032   -0.45642437626238
H         3.74272308022172    1.24025856959062   -1.95328710156539
H         1.39245867728723    0.90447669634036   -1.26883799783666
H         0.60097749322857    1.76826155668321    0.89487642925303
H         2.80810077836054    5.24706352931077    1.26098109047620
H         3.71265504648938    7.36668770205635    2.09537113750331
H         4.01339866445496    7.72562496592896    4.51907803662344
H         3.37712403567626    5.94407214212462    6.10844513347024
H         2.44808303883537    3.82159316907380    5.27641062662547
H         3.74008983533527    0.76854581062056    2.54966063326600
H         4.06021305348966    2.36813731506730    4.45117988229798
H         4.94699312736111    1.10663891799094    5.32194655033779
H         5.56309171464258    1.72337739060756    3.79425431294895
H         4.75898940700512   -1.40693863937340    4.42903949541006
H         4.29339952610315   -1.56338124229765    2.72946934263142
H         5.70404754713137   -0.62288751618756    3.17177225735842
H         2.45338652277293   -2.00883028586973    3.61039912904444
H         0.39434880773842   -0.49647468163235    1.94279719329322
H         2.09757983147694   -0.67781911822581    1.50601918436227
H         1.04007533229106   -2.09413893952962    1.55254993127554
H         0.65843771013475   -2.32324659061120    5.22252836593413
H        -0.45256615251489   -1.35631141788872    4.24991204597025
H         0.12643380195468   -2.91141874970146    3.65207205281392
H         1.10411770634327   -0.39212067139332    6.21630880876379
H         3.05448661574382   -1.96811599520295    5.98093863619988
H         4.13635418983381   -0.66422733960673    6.49777072377206
H         2.90054669474956   -1.27131287209743    7.59002081243668
H         2.01649924867445    1.13010277166132    7.87364560291518
H         3.21358908071702    1.74561775378295    6.73290453341969
H         1.48100287461000    2.00481927816676    6.43476053789735
H        -2.85559952641881    2.33196293712065    3.71279365449590
H        -1.39058229348586    1.35187382444805    2.03170739364004
H        -3.06765953755890    1.40595039959373    1.47906950522017
H        -1.89971401028049    2.55741152509949    0.82847263457278
H        -3.45099738169896    4.47809955939838    1.61819609849696
H        -4.57334703403922    3.31554787416562    2.30909664557812
H        -3.90634751609392    4.58735324708699    3.32665459051878
H        -2.19790022884017    5.39724809595175    4.84994098139022
H        -1.99252271336254    2.68917836634630    6.22902339489786
H        -2.67864807760009    4.14151297478385    6.95805580296467
H        -3.44107770760715    3.42770793081850    5.54250244085237
H         0.18721658318832    4.11229781101980    6.25083776198476
H         0.26172097756413    5.62659602306783    5.34156298312910
H        -0.69007057123613    5.53194156833938    6.82882778255743
H         0.41226314372130    5.56446921073101    2.92778123539603
H         0.05592304282950    5.76913212926592    0.55902555365640
H         0.12706283235079    4.05224985664123    0.95080921684072
H        -1.42992884034482    4.82915531654818    0.62128737305593
H        -2.51286568932333    6.33972438616100    2.54385324912481
H        -1.36661913680701    6.96398345965973    3.73780389996045
H        -1.13127263725432    7.29848066511114    2.03393428316357

