82
CSD_code = NOHYOA | q = 0 | S = 0 | Stoichiometry = C24H51NO3P2Ru | MND = 6
Ru       -1.04194910608025    2.85946894935402    9.86386575319315
H        -1.35380153368477    1.54265074589382   10.55386150687352
P        -3.22354354317620    3.45192795706071   10.43287384937338
P         0.81878170298149    1.74755919680905    9.01096057989628
O         0.33923572718811    5.38865402338885   10.80113297007832
O        -0.58285582547616    4.78231790618382    8.88829861657487
O         0.18162831228866    3.51628591132616   12.49640940633294
N        -2.04859696662411    2.01341958778581    8.01957116120123
C         0.01414574847336    5.60417467950726    9.62090217851357
C        -3.87383447836004    5.25548985924549   10.43178142079605
C         2.34083991779709    2.64640443013220    8.27033230927286
C        -3.95466595302013    2.54386431122517   11.94940038949650
C        -2.02194178796333    3.00183636043215    6.94385255513105
H        -2.53325336182440    3.90912358809463    7.25486309951764
H        -2.50858777622590    2.60852389646939    6.03785939378608
H        -0.99561711386629    3.26997270671964    6.70614099717130
C        -1.36376033804682    0.79126941012132    7.56644639297016
H        -1.77102731856057    0.48424456108698    6.58678965256267
H        -1.58819496145274    0.00061261447393    8.28522341289039
C        -0.20894742359565    3.53357654576149   11.40945299436363
C         1.43110730374585    0.25191579218433   10.03474367894497
C        -3.44669525419230    1.65607434867795    8.31229160497245
H        -3.43432987461609    0.77457120374553    8.95675825654335
H        -3.95999220220971    1.38279450799769    7.37326845457838
C        -4.22716843944491    2.76093043239610    9.01767367237163
H        -5.17939170916915    2.36040796305369    9.37250501386678
H        -4.44723596663241    3.57063006742948    8.32110525344444
C         1.61008419501921    0.74615040376548   11.47061590989902
H         2.31347650679386    1.57236297144635   11.52741022816124
H         1.97786657735246   -0.06228713391608   12.10162462246380
H         0.65626428741971    1.09019468809254   11.86371933580218
C        -3.42356087158483    5.88871316230475    9.10734008458740
H        -2.41832164749127    5.57854023827984    8.83927028993925
H        -3.42150149465357    6.97420318288855    9.20451960962918
H        -4.10248026756688    5.64003452775799    8.29185448157733
C         0.15125775099844    0.93970740270926    7.46586624045771
H         0.41310772829851    1.56274924685787    6.60996695666436
H         0.60186831189432   -0.04330520020785    7.31150037161779
C        -4.05713031997782    1.04978818502501   11.63044313547837
H        -3.12052457553621    0.69094913183574   11.21022194815022
H        -4.87434656051722    0.83193560287836   10.94567552332845
H        -4.24018570911085    0.49951645940476   12.55228816486509
C         2.72537833997731   -0.40740605000527    9.56302763354214
H         3.58727473771174    0.21815229080039    9.77219425839355
H         2.69847374917587   -0.64826019932750    8.50328721183434
H         2.86083020441357   -1.33988546035734   10.11143754545275
C         1.79796602046260    3.70839019813797    7.30320309339378
H         1.58483520343724    3.28600705052148    6.32139924842512
H         2.54394993700637    4.49040730447307    7.16361178667412
H         0.89807433469776    4.17562908601821    7.69109175702842
C         0.34946756890055    6.96121887228066    9.01109530316460
H         1.39241693828108    7.19469290178529    9.20686836356167
H        -0.26555914895468    7.72000150814941    9.48985441058212
H         0.15724524602227    6.95581400021400    7.94134075713895
C         3.35301350347298    1.81597284151329    7.47518530076574
H         4.05308940259662    1.28838564452001    8.11160249098516
H         3.93545628533589    2.49282363498006    6.84943720730714
H         2.86220433853563    1.10007426876837    6.81934862858864
C         0.34107243888344   -0.82339648840820   10.04171008593812
H        -0.61953673405387   -0.38209136047373   10.29684774444789
H         0.57753920718036   -1.56676586427532   10.80177208610447
H         0.26729629854472   -1.33814870128858    9.08577830602312
C         3.02774839565719    3.35175705378833    9.44007750883666
H         3.52938732095415    2.63769382165581   10.08975659147476
H         2.29652938151707    3.90259851136917   10.03376859939537
H         3.77642755397691    4.05543494900088    9.07615547328007
C        -3.16087471068727    5.96591793249295   11.58279399253108
H        -2.08939127445856    5.76243685218373   11.54953168616989
H        -3.54306480211584    5.63503675018366   12.54610656866548
H        -3.30928347089974    7.04387789666960   11.51750953318199
C        -5.38765227118533    5.47367068517372   10.52107066134700
H        -5.93549677741437    4.76725242016629    9.90117541856851
H        -5.61237713646392    6.47655137552003   10.15687168411199
H        -5.75939568014120    5.41270382997487   11.53674635173970
C        -5.33048594050367    3.00935841479049   12.42150426394705
H        -5.27682904501367    3.98213120830403   12.89989916242086
H        -5.70045297979147    2.30258072541208   13.16462634020377
H        -6.05174610256616    3.04205985743876   11.60884030516484
C        -2.94699514942288    2.71202111740691   13.08728913628577
H        -2.00283004916246    2.24602481670600   12.81533410632412
H        -3.32285178459670    2.23845422231912   13.99361745985732
H        -2.75387503925895    3.75946765577793   13.30255045970319

