77
CSD_code = NOJBIA | q = 0 | S = 0 | Stoichiometry = C36H28N6O6Zn | MND = 4
Zn       15.72637417041229    6.42233524926496    4.01903141156732
O        17.99986133315349    5.57512881609623    7.95584514309987
H        17.36326745058966    6.00012750410684    7.32183772169560
O        17.21748032317632    5.05026439723021    3.94594434998013
O        16.75134918956573    6.12434196192813    5.78417786482501
N        20.68173074883409    1.67538690770460    5.13082764810063
N        21.44516427710774    0.87282554067773    5.75561939211696
N        14.37113522261870    7.84010853115277    4.78388348428642
C        17.40438791181867    5.22456998305014    5.16552799262794
C        18.40116020007813    4.41090962283110    5.89573613541062
C        18.64386512249093    4.63155242242411    7.26647720142338
C        19.59534216461237    3.84100894272241    7.92538457772755
H        19.76960196938025    4.02848847720837    8.97385771210556
C        20.27510326279172    2.85886834795438    7.25347492769175
H        21.00732844821038    2.24354276062977    7.75415378214543
C        20.03468757238394    2.62834238568002    5.88553366655855
C        19.09737426849189    3.41793644294470    5.22238879220413
H        18.89665412371227    3.25373036415259    4.17534415884272
C        22.15203569392477   -0.03139779178796    4.99064823049014
C        22.67283811041339   -1.14736126148363    5.65363833973059
H        22.45035299852556   -1.27821285864032    6.70163859293534
C        23.43360978282990   -2.06812094842781    4.96333652765275
H        23.82556149152380   -2.93508948887825    5.47514207650394
C        23.70334399324351   -1.88047355758651    3.61555263435723
H        24.30759452184052   -2.59889411905757    3.08120220404601
C        23.20262968046849   -0.76792033506888    2.95451795361167
H        23.41935763080301   -0.62298289361204    1.90566917734392
C        22.42892445279365    0.15170820755656    3.62983126535891
H        22.03319626483618    1.02791280538136    3.13859763264921
C        13.69896676959017    8.64332146363019    3.96810183908516
H        14.11090856695489    8.76262525350118    2.97653144584270
C        12.53425685472523    9.28938223885227    4.34499222694695
H        12.01878652410960    9.92950898953834    3.64662214577584
C        12.04730696914436    9.08929940748113    5.62741723524451
H        11.13742326241069    9.57118188286042    5.95333316598643
C        12.75281776397446    8.25473317394697    6.47902544078345
H        12.41187442859195    8.06832188855286    7.48487178739217
C        13.90813635684976    7.64952786161637    6.01317010144805
H        14.48991675618118    6.98520720662446    6.63439490288681
O        13.45015405721495    5.57565930836109    0.08365690685264
H        14.08677474404658    6.00078649874366    0.71756101343878
O        14.23562062970594    5.04951457387166    4.09270499666521
O        14.69972642970846    6.12473319440828    2.25463427943008
N        10.76906532425078    1.67585134327023    2.90943026176498
N        10.00992975588093    0.86991709028877    2.28387296818945
N        17.08088302201078    7.84098349044977    3.25417959082610
C        14.04740780555487    5.22450994624881    2.87343652570317
C        13.05016881280188    4.41094697359069    2.14373835417410
C        12.80680845899627    4.63170630373992    0.77312355491477
C        11.85529064587406    3.84098283332904    0.11453689877956
H        11.68045646698325    4.02853298604759   -0.93382567155277
C        11.17611834193803    2.85856619708875    0.78664374274819
H        10.44381080356266    2.24312755386370    0.28621634908704
C        11.41689869760585    2.62816874086885    2.15453647708468
C        12.35418693710682    3.41800852683383    2.81741627000491
H        12.55533946291182    3.25382905603987    3.86438616331002
C         9.30013974743311   -0.03255533178849    3.04803529245164
C         8.78745020771628   -1.15341870120918    2.38694735125599
H         9.01879311887804   -1.28943369886211    1.34152808174909
C         8.02342306607118   -2.07230821409415    3.07609421328597
H         7.63779116748579   -2.94303062477296    2.56588065081249
C         7.74220253818432   -1.87796543282046    4.42059357315343
H         7.13528522824427   -2.59490291107055    4.95389664077630
C         8.23481085988807   -0.76060812417801    5.07957071268080
H         8.00914271058591   -0.61045625625949    6.12579647012760
C         9.01182501036443    0.15720256460850    4.40556444510312
H         9.40134594029881    1.03707303996490    4.89520401163283
C        17.75863561836402    8.63786323871905    4.07165868427604
H        17.35254603149531    8.75061500311235    5.06656927667452
C        18.92163249342761    9.28562602040689    3.69231056057157
H        19.44178905331733    9.92052305780986    4.39213528962668
C        19.40062185930696    9.09428688408908    2.40539494792510
H        20.30867968896736    9.57815231596341    2.07731242699593
C        18.68927785360416    8.26632110482646    1.55216554957647
H        19.02375957436453    8.08715310527311    0.54286360288831
C        17.53641550244505    7.65854342711104    2.02076861704150
H        16.95018570026806    6.99934913337283    1.39838003149171

