77
CSD_code = NOJBEW | q = 0 | S = 0 | Stoichiometry = C36H26Br2N6O6Zn | MND = 4
Br        4.09856617737288   -7.39368093452594   17.72445747598352
Br        3.48055469065817    7.79273661137750   -3.12949053656456
Zn        0.88560631051140    0.77351200052985    7.80590273500132
O         1.35422315448330   -0.21286309491861    9.53581789063496
O         2.63503737836867    1.35943398408088    8.73680934575314
O         4.90544349437259    1.86338859083024    9.81796687099381
H         4.14266924185084    1.91930152076712    9.18215046471844
O         1.10640308499193    1.62783360020743    5.95903510301368
O         1.94184052223227   -0.33202309695602    6.41882471818614
O         3.42490252119524   -1.54810058945757    4.71800452529265
H         2.93347847402070   -1.36397067076540    5.56285034131043
N         3.84289862187637   -2.22077148203653   13.35260495933909
N         4.64818695060378   -2.44502099687707   14.30998015975067
N        -0.82941356632924   -0.34298382421825    7.36490563452806
N         2.81081393987888    2.82583823940271    1.43264811213938
N         3.30320835677798    2.80023886252313    0.26093155069066
N        -0.11207355349741    2.38463945121365    8.69465623629878
C         2.42116370466394    0.43681443047751    9.57763863730245
C         3.43329834225183    0.14502075997314   10.61782852789776
C         4.63439171553074    0.88348917619389   10.67353928004766
C         5.57707229887023    0.57333762308646   11.66650755267074
H         6.49020293392324    1.14785548412342   11.69066903168862
C         5.34231544793307   -0.43132342324552   12.56656374757708
H         6.06580145865920   -0.67891789867605   13.32862546296341
C         4.14729329364114   -1.17611924455659   12.51333307989386
C         3.20583665690857   -0.87271221649624   11.53042463598293
H         2.28717179385724   -1.43546760513388   11.47490595336310
C         4.42745652263723   -3.56440440717257   15.07447125106161
C         4.94232431074462   -3.57042912088734   16.37671719980866
H         5.40619702701143   -2.67445250170629   16.75868690122728
C         4.83308719071985   -4.69559752695229   17.16411326318878
H         5.21757698869461   -4.70092139683824   18.17266897751399
C         4.23012127114843   -5.83175935122387   16.64351674138195
C         3.72931240338652   -5.85721709014547   15.35052865436110
H         3.27095168183731   -6.75549975655133   14.96481268081937
C         3.82195408917335   -4.72511910213286   14.57128799324190
H         3.44824868885115   -4.71390729361921   13.55875521156895
C         1.80965464055015    0.64889117092262    5.62853496142547
C         2.47821864008860    0.61921735035401    4.30793750202361
C         3.26050740371726   -0.49217687393579    3.92825998993509
C         3.88809374193108   -0.48426725995390    2.67254193925205
H         4.48355586743810   -1.34263586943701    2.40219375963973
C         3.75111933842309    0.58394567849547    1.82728314239870
H         4.23621333762027    0.59916093980814    0.86297497505281
C         2.97583132110698    1.69935109939759    2.20213754414082
C         2.34800787705013    1.69762844796093    3.44732713611477
H         1.75306427034678    2.54512321384536    3.74985680554764
C         3.26066204468108    3.96317529094959   -0.46880157932995
C         3.32642759086406    3.85346775455221   -1.86329748366384
H         3.31637072106743    2.87178340140152   -2.31056174965642
C         3.37719681866406    4.98349369745823   -2.64973250392325
H         3.41654822342373    4.90409071753534   -3.72546017011608
C         3.38774060207415    6.23159665185352   -2.04349506684831
C         3.34232820674747    6.36640925675114   -0.66393416163176
H         3.35894926180879    7.34816903496137   -0.21488881862488
C         3.27258434365554    5.23600486530386    0.12009869183744
H         3.24246176295046    5.30588899998134    1.19673979044168
C        -1.00327379376593   -1.52527796015432    7.94359850114724
H        -0.34887492683990   -1.73816543791219    8.77538484445838
C        -1.95599128663345   -2.43366995147673    7.51321352070540
H        -2.06149053438419   -3.38421858570727    8.01156707754842
C        -2.75790771083038   -2.09869724849908    6.43400260629928
H        -3.50736108403342   -2.78449308453637    6.06772558627940
C        -2.57411679130537   -0.86338354046210    5.83216008523273
H        -3.17318343426600   -0.55986983549517    4.98824257200667
C        -1.59762507690370   -0.01876607131788    6.33143042748958
H        -1.41112783982365    0.94892266093904    5.88855921433262
C        -0.57337805642206    2.28572737139980    9.93592990961853
H        -0.59645568877438    1.28975522943543   10.35404925590050
C        -0.99134977890668    3.38398801690511   10.66757915395470
H        -1.35561802492755    3.25715963805270   11.67477010182093
C        -0.92571745016673    4.63884514324526   10.08196053271676
H        -1.23892830909683    5.51797111201199   10.62528626834023
C        -0.44613591795718    4.73878305393758    8.78576874186012
H        -0.37564204484715    5.69411091160110    8.29036883218650
C        -0.04850984430405    3.58506198697789    8.13083694590698
H         0.33812796019354    3.60722131310205    7.12310074764035

