83
CSD_code = NOJCAT | q = 0 | S = 0 | Stoichiometry = C38H30Br2N6O6Zn | MND = 4
Br        9.08177585544369   -3.02541386810780   18.68838676750894
Zn       15.81299487182154    6.37912065189642   13.90228400946865
O        14.38701137947737    4.99612720229711   14.36141405451992
O        14.36881492934283    6.05840328057377   12.45724351972894
O        12.63459879275490    5.47942415531340   10.66816458054454
H        13.41352197399038    5.90461800108793   11.12048680053579
N        10.48565823937489    1.69469692404393   14.03678551120890
N        10.86285315181187    1.60451840553276   15.24670645069360
C        13.88832394045676    5.17510871366293   13.23532475370808
C        12.71322020341766    4.38246451997065   12.80037245005444
C        12.14845756660696    4.58024250638279   11.52166064089252
C        11.04406952839792    3.80756160272939   11.13843680466212
H        10.62849979071142    3.97040984059241   10.15632363793929
C        10.51794239782320    2.87046576133363   11.99067793066965
H         9.66874377803397    2.27142628286028   11.70000381548231
C        11.06864070187085    2.67357393121388   13.26823177497500
C        12.17210607647202    3.43976038740218   13.65651973421799
H        12.61551188066314    3.29061790789590   14.62927440284369
C        10.38022791872043    0.54789062941821   15.98024744075202
C        10.01045504360425   -0.67781578738702   15.40756685002821
H        10.04433269754610   -0.77629526493439   14.33324492398829
C         9.63209778783776   -1.73471589031560   16.20591611130889
H         9.35239377382284   -2.68202458753516   15.76984825418895
C         9.61017043104765   -1.56872647694414   17.58259240946988
C         9.97326266952988   -0.36673747808112   18.17315254207325
H         9.95159038999403   -0.26370644633662   19.24744489805384
C        10.36867961262988    0.68345415226568   17.37396793714246
H        10.65628996738819    1.62843240750907   17.80760194171916
N        16.92267561756427    7.78351882156724   12.82154213469855
C        17.79235596475511    8.57910378768679   13.43373714650772
H        17.66257067111257    8.69009596928340   14.50067859772838
C        18.81293667087098    9.23013271860637   12.76721933092130
H        19.49544839172326    9.86291350961791   13.31364867958397
C        18.95488464343267    9.05731127557847   11.39361695574153
C        18.03187405087061    8.22717612570393   10.76318670147057
H        18.08876380691853    8.05576432847118    9.69930839412148
C        17.04441792828742    7.61351180952433   11.50905329330555
H        16.31786248909557    6.95815428017259   11.05291166402570
C        20.05650320781201    9.71153656803494   10.62914674734817
H        20.85147938484560    8.98825508605622   10.44639352699169
H        20.47671928087865   10.54658559596293   11.18338955296584
H        19.70005699939032   10.06277820747799    9.66338053944608
Br       22.53963719968252   -3.02860856694813    9.11849931178178
O        17.23986764608941    4.99724590652198   13.44213982352196
O        17.25622336866319    6.05754978294769   15.34740740540707
O        18.98886146704114    5.47696535292465   17.13753211523152
H        18.21007983808875    5.90232354811715   16.68514367728919
N        21.14184777528783    1.69640746525631   13.76690099829676
N        20.76439494952855    1.60578214536935   12.55709533641302
C        17.73754519175354    5.17510838041969   14.56884358832305
C        18.91261912833674    4.38248472449851   15.00392964019607
C        19.47626566014097    4.57916371713649   16.28331393966241
C        20.58091558994879    3.80682900480852   16.66648872017089
H        20.99566611122984    3.96889960963390   17.64907787364904
C        21.10823987634819    2.87095670179747   15.81365274688919
H        21.95762620892163    2.27217401043125   16.10430130645591
C        20.55836484137306    2.67482770415875   14.53562155279840
C        19.45481221952020    3.44087012430376   14.14727028700744
H        19.01218395595384    3.29239964125921   13.17405816817251
C        21.24655915576626    0.54866276817618   11.82399604241446
C        21.61610388044116   -0.67670004465632   12.39762287211649
H        21.58305273545043   -0.77395526892404   13.47207773157202
C        21.99303924005685   -1.73471304527118   11.60010113950010
H        22.27242219525462   -2.68175967494578   12.03693536531650
C        22.01375752801294   -1.57021118833848   10.22323570655651
C        21.65109708827674   -0.36853665211121    9.63174629489539
H        21.67188274114739   -0.26668678447820    8.55733128743492
C        21.25716580566556    0.68282390301409   10.43014019449877
H        20.96992151034821    1.62754957353246    9.99571535614466
N        14.70236429465691    7.78217594104624   14.98360404409829
C        13.83681465734997    8.58233529915349   14.37155844258008
H        13.97031427155792    8.69694794907157   13.30545741568436
C        12.81578386459230    9.23361481867389   15.03715815130543
H        12.13674410199742    9.87024442016313   14.49087060860893
C        12.66888234212246    9.05603492210443   16.40963502121389
C        13.58744890259374    8.22085666537663   17.03992514581704
H        13.52653475433785    8.04552462650240   18.10294105535348
C        14.57576209806478    7.60740698426674   16.29500695360250
H        15.29895417064426    6.94828166441115   16.75105861788973
C        11.56682936406402    9.71075806652957   17.17306890081141
H        10.76952628154400    8.98897690966160   17.35163586168312
H        11.15027052826178   10.54850603922206   16.62017629390558
H        11.92162300171980   10.05826330703768   18.14083079249062

