19
CSD_code = NOJKUS | q = -1 | S = 0 | Stoichiometry = C4H7Cl2N2O3Pt(1-) | MND = 4
Pt       -1.17844095567596    3.67426880537859    5.88555003810508
Cl       -0.89434252880163    1.73559704070900    4.75110556401494
Cl       -3.36585521159840    3.19192801106759    6.44238893479952
O         2.13416641598702    6.04224808300062    6.20153071229756
O         1.25035556928851    2.22747232623441    6.85387252381969
O         2.61716228543827    1.38136257475260    5.30974845842565
N        -1.41425323509806    5.54977912527250    6.76463622715928
N         0.68720486872523    4.38279954951108    5.58173666792784
C        -0.10255665307848    6.12747447417220    7.05669251883804
C         1.02848607179330    5.49466839104605    6.20929112935096
C         1.74406460940392    3.60880663511496    4.98531615762134
C         1.91423586285261    2.28214870888499    5.69370282464411
H        -1.89683437735173    6.07374464729687    6.03496991730749
H        -2.02801620426477    5.50189649969072    7.57641998289448
H        -0.08576515503444    7.21583329392982    6.91668562028391
H         0.16125764465158    5.91908078450492    8.09772055239191
H         1.53945615878308    3.39476180535907    3.93110398845532
H         2.68930103649833    4.16582360127067    5.05925096317694
H         1.25417379748275    1.32010564280375    7.19297721848638

