84
CSD_code = NOJWAM | q = 0 | S = 0 | Stoichiometry = C42H35CuO2P2S2 | MND = 4
Cu        7.71459032438738   -1.16585472500647    9.33562835777583
P         8.25465320426212    0.48281965296092    7.99895674934202
P         8.84029458354380   -3.12174252133538    9.57973228581792
S         7.25664958175370   -0.80363324997237   11.64184486495602
S         5.52350873241963   -1.94438155548028    9.55106452906117
C         5.91301392972857   -1.68140100707505   11.15641591016172
C         5.36267983299660   -2.06241309267910   13.42049268518219
H         5.33725118200931   -0.99444840430024   13.67483713815412
H         6.36811927227308   -2.44971103120426   13.62841208886083
C         4.35198812925474   -2.82789721657743   14.19745244899743
C         3.02300480843056   -2.60862150471836   14.41545925300422
H         2.44390575305332   -1.78430151234180   14.05346709799554
C         2.56986007439054   -3.69050384826487   15.20767368442882
H         1.57582799643112   -3.85034003251988   15.57208688299641
C         3.65596084176719   -4.48264697970487   15.41047952007843
H         3.78408118163106   -5.39885623324077   15.95246008301419
C         7.84564165973364    2.22883301006253    8.30363674822915
C         7.56708044291088    2.56949047415025    9.62523410174596
H         7.59064033806824    1.79666085566569   10.38419706229720
C         7.25859691350267    3.87714090255754    9.95102460687385
H         7.04527035102262    4.14240008666671   10.97607037081693
C         7.21488458366503    4.84309800022476    8.95830779982655
H         6.96906025211372    5.86442751188494    9.20996803487650
C         7.47622455450238    4.50138699662662    7.64063954426940
H         7.43242088771898    5.25639317076857    6.86895403941589
C         7.79098108674963    3.19640505066726    7.30684160298542
H         7.98794490531091    2.92769529897569    6.27860563253752
C        10.06641345141673    0.46671414764715    7.95432361677506
C        10.84244884889463    1.45884160266169    8.54220939758477
H        10.36666583243450    2.32682484321464    8.97681597355571
C        12.22022947539764    1.33177005795389    8.56640764262568
H        12.82089757901851    2.10581837724818    9.02163688585813
C        12.82961542776477    0.22037344878271    8.00956045897587
H        13.90524500233043    0.12736755797501    8.02742706066438
C        12.05841177521317   -0.77781066082549    7.43426366582936
H        12.53113025960661   -1.64999670217290    7.00750794451274
C        10.68327211831072   -0.66282399229885    7.41852668178847
H        10.07197390439577   -1.44624493252495    6.98814424530357
C         7.79958855208349    0.20566602267314    6.26297767371183
C         6.57995609955376   -0.42677207088187    6.03610074532948
H         5.97596237071773   -0.72635331415408    6.88411314879111
C         6.16204775329669   -0.68064791716915    4.74248319714236
H         5.21737160880274   -1.17419479283353    4.56871630445950
C         6.96024073431461   -0.30700139014394    3.67329016661311
H         6.63665621301604   -0.50607651105479    2.66205071161708
C         8.17799926444892    0.31670747238461    3.89698305260817
H         8.79969706086669    0.60291096329058    3.06077994961872
C         8.60304530037574    0.57329503446828    5.18780754933108
H         9.55898260809115    1.04755360266918    5.36518569090070
C         8.74320041202939   -4.33026850146710    8.22551557320881
C         8.31074818121213   -3.85817252540231    6.99075540104391
H         8.03355615625547   -2.81417313320180    6.89501184844508
C         8.21343613577975   -4.71868179128985    5.91266219213017
H         7.87584019384857   -4.34828224092763    4.95568287917074
C         8.54063098481791   -6.05587802653929    6.06801290098945
H         8.46288149137342   -6.73160366603636    5.22891589992446
C         8.95533383751510   -6.53381072308512    7.30187961671501
H         9.19788674941240   -7.58002125919507    7.42122683514422
C         9.05570848462943   -5.67742627389356    8.38279027906650
H         9.36453619739569   -6.04881076380175    9.35096262690378
C         8.29943740624322   -4.09410338599787   11.01440464503041
C         7.07564752568075   -4.75491032545196   10.90785841293968
H         6.55456189766823   -4.76173271714402    9.95881830265518
C         6.52677555268940   -5.37513198879648   12.01335521802749
H         5.57327979383222   -5.87572373911734   11.93013794223021
C         7.18852619653748   -5.33581542274285   13.23078469227849
H         6.75200802868220   -5.80823968021946   14.09776326706317
C         8.40033349842470   -4.67303228889255   13.34021242295870
H         8.91085158109667   -4.63360808318726   14.29195534234873
C         8.95562450567274   -4.04478970551834   12.23964213414703
H         9.89113766964302   -3.51014762112046   12.33055625969194
C        10.62139206642484   -2.89087355089442    9.86599302105510
C        10.95803150310963   -1.77589583017661   10.63192241154838
H        10.16573113353266   -1.13916602759790   11.00841921159695
C        12.28226045835433   -1.48862268123821   10.89737885620622
H        12.53868757693800   -0.62673477901581   11.49544177849216
C        13.27931750546067   -2.30411899668453   10.38565618990572
H        14.31642291196756   -2.08065094924654   10.58854392895040
C        12.94839163598092   -3.40103367293194    9.60767560511646
H        13.72840501339660   -4.03063838626165    9.20380297362242
C        11.62285752290122   -3.69769677024194    9.34248893633322
H        11.36929551716204   -4.54960025240912    8.72778137827066
O         5.07190450997561   -2.21429414218246   12.03615203321264
O         4.73797352024754   -3.97082903981899   14.80198409570780

