86
CSD_code = NOJWEQ | q = 0 | S = 0 | Stoichiometry = C43H36CuNOP2S2 | MND = 4
Cu       -3.06412004402352    1.61319820456195   13.73317391044129
P        -1.29182501652454    2.94021578285672   14.22566440194658
P        -5.14981823589946    2.05939695719313   14.27404851963095
S        -2.18030143930485   -0.37788347649235   13.04333319731373
S        -2.73103094650460    1.91482123778900   11.27448649629914
C        -1.96448207243852    0.46676005654591   11.60747782898316
O        -1.13542442858627   -0.11587996038837   10.74715779201732
C        -0.79592456742197    0.55386014601729    9.55030592852287
H        -0.86156421308344    1.64040345799407    9.70568154545258
H        -1.52450638270221    0.28685137802730    8.77058609023895
C         0.59005405438644    0.18015320501454    9.11517844032542
C         1.21543505144013    0.90188072341792    8.10384226392369
H         0.70908902568931    1.72583439553153    7.62408319235441
C         2.50123743065568    0.54541261346264    7.73515566767280
H         3.02663388347843    1.08280302358940    6.95607315018486
N         3.17344215278693   -0.44570622301678    8.29680455849043
C         2.57362489069293   -1.13371760822013    9.25222504531616
H         3.15597411688416   -1.93821460933924    9.68283151882241
C         1.28775175930287   -0.86894951374562    9.69784415091934
H         0.83594940725137   -1.45281304014952   10.48335968311920
C        -0.39378535466489    2.72219210860916   15.79319260122423
C         0.82622482838078    3.34555342318048   16.04047251993682
H         1.26436294280641    3.98516300034504   15.28583603010744
C         1.46837430290029    3.13861204793608   17.24664744306791
H         2.41483239355237    3.62180766673864   17.44170734835132
C         0.90228290260139    2.31083685576359   18.20488560303104
H         1.40980813762073    2.15293911415352   19.14518488119325
C        -0.30495534578134    1.67942796095228   17.95542154421105
H        -0.73996728037477    1.02623192308744   18.69746272778150
C        -0.95140992994005    1.88056591140238   16.74875586967640
H        -1.88826671257746    1.38273105878361   16.52957525584268
C         0.07565312306050    2.83532740896063   13.03240052779847
C         0.33891007923339    3.78654996328195   12.05490730745842
H        -0.23391921617817    4.70263699126980   12.02004179932472
C         1.33507887304229    3.55131957230861   11.12268586600427
H         1.53894942853606    4.29091668044809   10.36157674933485
C         2.06524694705857    2.37492812500743   11.15688637015556
H         2.83750514643007    2.19476156560926   10.42342278377473
C         1.79811831002837    1.42130920925294   12.12721901685781
H         2.36049379794191    0.49952680457755   12.14799386587618
C         0.80280042240226    1.64491374648545   13.05743500487352
H         0.57080028332174    0.89740416401426   13.80641536713077
C        -1.78102681368958    4.69070442048764   14.22888158039114
C        -1.57044233085097    5.55419904798127   15.29806908568531
H        -1.01969607933037    5.21943515920016   16.16599910534501
C        -2.07244156190162    6.84281050763048   15.24934354857311
H        -1.90628182633896    7.51231548597503   16.08101810602582
C        -2.78551102041469    7.27549037108779   14.14378022451878
H        -3.17254248101016    8.28325952707782   14.11197286080361
C        -3.01155408577816    6.41259771744341   13.08303196577628
H        -3.57730505539120    6.74245693354910   12.22461509078317
C        -2.52552784961138    5.12091550010075   13.13047278105961
H        -2.72665240674815    4.42890839577134   12.32273742902446
C        -6.54662478927632    0.98079679855586   13.84543102020789
C        -6.23991725354175   -0.32723644645350   13.48294164875076
H        -5.20156238456003   -0.63727481768251   13.46266194002169
C        -7.25499402497363   -1.20487375407008   13.14741741277642
H        -7.02000292297165   -2.22033677065721   12.86468953974923
C        -8.57214109502385   -0.77554175275110   13.16818737991654
H        -9.36584922023836   -1.45870254046702   12.90334089482366
C        -8.87749158255387    0.53058602355181   13.52112363006318
H        -9.90637113853795    0.86035147045017   13.53092891772531
C        -7.86913607528217    1.41396050483528   13.85875292597482
H        -8.09792873490050    2.43565191285091   14.13076671071906
C        -5.22642745157074    2.22249243754827   16.07717143372534
C        -4.22197223116505    2.99396557781184   16.65986591546106
H        -3.49526343229446    3.47797548283442   16.01512803425628
C        -4.15556231391871    3.13237460839113   18.03164590124971
H        -3.37489749437676    3.73197279091826   18.47659400266358
C        -5.08616160135815    2.48845543439096   18.83389791522066
H        -5.03413772289478    2.58988690569918   19.90777842571517
C        -6.07614020744710    1.70834621037081   18.26000114822467
H        -6.79481852776410    1.20162218625842   18.88740773830499
C        -6.14921558795047    1.56923932483175   16.88435952063150
H        -6.91779831778914    0.95409277231672   16.43839441411601
C        -5.69911870878887    3.68081331345515   13.66816232071913
C        -5.76924613964795    3.81023464287126   12.28184078422799
H        -5.51268850205066    2.96280890551392   11.65935528111594
C        -6.14694613759723    5.01173816910648   11.71634368791225
H        -6.20299104874808    5.10804047565006   10.64196490333912
C        -6.44509257072901    6.09465202379615   12.52952069621276
H        -6.74005443469296    7.03602093253545   12.08902075168221
C        -6.35962379468955    5.97304193191148   13.90622009390864
H        -6.58605401383961    6.81918340309103   14.53875126750962
C        -5.98654698073162    4.77054733463592   14.48053211210854
H        -5.92197455238040    4.68033938882325   15.55563998658601

