102
CSD_code = NOJXEQ | q = 0 | S = 0 | Stoichiometry = C41H52N6Si2Ti | MND = 5
Ti       22.42441677545752    6.68959382289895   11.50135582444933
N        22.97053773271506    8.18924521683946   10.86390787868944
N        23.01990153469421    9.62052487083173    8.37223739351224
N        20.63164690263644    6.50701071132372   12.20845684063681
N        23.63688639884616    5.19158807164564   11.34795263263804
N        21.58278234733766    5.86980358256226    9.87063284191096
N        23.11305712385494    7.13280882683736   13.39674132301843
Si       19.19310658862129    7.35369277069026   11.86410758932730
Si       24.92342406518436    5.01702328669897   10.23730968203782
C        23.24393370446985    9.48565317537873   10.78397004909350
C        23.25949744042661   10.23409881217459    9.64463061206770
C        23.60333774404959   10.12423470697557   12.09388147246652
C        22.76647569175053   11.03913610717721   12.72472457019295
C        23.11091992876751   11.57322792905541   13.95428503635839
C        24.29755824175588   11.20747194898476   14.56624300096565
C        25.13903667349052   10.30116450516255   13.94224324321999
C        24.79204397683253    9.75710063000903   12.71890014612283
C        23.48015059843561   11.72093429136479    9.58763193872557
C        24.06071276343249    8.99803654920973    7.70866368274557
C        23.82615427378747    8.13539542871195    6.63097601601651
C        24.87431408749500    7.51179468001641    5.98515352285198
C        26.18114352031054    7.71968001177491    6.39356211197977
C        26.42271381060758    8.55480647320431    7.47190985866389
C        25.38269177694990    9.18311419887719    8.12541728010395
C        21.79438555182110    9.89536028685516    7.76599550039434
C        21.69368005196050   10.27232109910193    6.42477822802430
C        20.46140495781705   10.56909306464973    5.87584119806066
C        19.31191874498693   10.50749963539118    6.64712210916280
C        19.40677745707344   10.14792028121298    7.98252809451746
C        20.63235418225195    9.84387934855422    8.53963554080295
C        20.61907879206808    5.11937167165675   12.53516181766433
C        22.86769593451976    4.08009275249601   11.79515942171039
C        21.32274100887770    4.15112803550570   11.51185930939418
C        20.75587224920525    2.74716734884248   11.75317482211905
C        21.10913030801636    4.64190288574354   10.11535013650385
C        20.48045367230367    3.91138588215632    9.10607800028181
C        20.34461814749771    4.46558096712775    7.84717741562422
C        20.84324407011652    5.74238700485664    7.61410111629914
C        21.45752225082557    6.40423338806242    8.65859405271763
C        18.41413621724736    7.06763469799103   10.12335717298644
C        17.80530943173454    6.89197060533331   13.11287126810573
C        19.63148722937004    9.19972816551976   12.07956410870873
C        25.95186410732990    6.61143952942124   10.39953335394849
C        26.00536096928681    3.49131676517289   10.69278063695985
C        24.41733259441604    4.77668198887177    8.39631953113627
C        22.38589719516225    7.89069108849467   14.22346648321799
C        22.84235652970632    8.29842031018465   15.46517327715652
C        24.10441019607145    7.90317172486839   15.88521266512947
C        24.85685957983404    7.10969560924221   15.03095066747601
C        24.32846200465054    6.75344111165244   13.80151204806604
H        21.84993393261467   11.34549594773154   12.24280836789668
H        22.45499457931802   12.28651483333533   14.43309708285664
H        24.57046157417303   11.63338297016096   15.52112407559386
H        26.07332608224425   10.02299451199178   14.40984660485527
H        25.45085508267837    9.05605247647475   12.22500314038890
H        23.91822891249402   12.08585611250361   10.51284319740748
H        24.14734741123168   11.96922557584966    8.76065689115590
H        22.53904209114859   12.25151258365343    9.41745690737990
H        22.81369010937513    7.95213393848734    6.30127327977096
H        24.66675253488041    6.85066471376819    5.15525019400200
H        26.99818200943049    7.23365375620600    5.88165398840789
H        27.43740502267532    8.72625276506399    7.80341477385767
H        25.58323816228148    9.82598141375073    8.96853731688245
H        22.58764619196599   10.34717460022882    5.82307391451972
H        20.39880309763760   10.86448854547934    4.83795685885846
H        18.35210787940274   10.74386613706536    6.21226002398424
H        18.51641413430660   10.09828161448147    8.59293385248692
H        20.71513811001127    9.54567780386088    9.57485367618337
H        21.12119163325201    4.95590670163525   13.51276144748159
H        19.58792942032651    4.74882010346396   12.65095773988189
H        22.97049651234993    3.96046887391930   12.89475814790413
H        23.22272843061419    3.13777978395383   11.34618636138458
H        21.23420565974233    2.01127856200020   11.10899212238257
H        20.93969571208964    2.45698615905634   12.78657201532488
H        19.68078381830783    2.72110590751147   11.58338738840066
H        20.09896657031903    2.92145333010597    9.29748149034712
H        19.85757297732720    3.91113906804503    7.05856014718224
H        20.75146976449184    6.20664291046202    6.64513376774800
H        21.87415213925049    7.39893938166821    8.55228143176542
H        17.43288735290734    7.52656488375557   10.04745439989237
H        19.03649378476157    7.48802111181622    9.33760479896675
H        18.29179101173353    6.00700370374293    9.91231347495484
H        16.98923208449800    7.60529727831901   13.07198280213532
H        18.17440348008803    6.87217784756250   14.13429888882788
H        17.38763455796484    5.91307946591678   12.89651344821940
H        19.03165679231972    9.82501723555534   11.42779261954435
H        19.46764680977183    9.54600330275672   13.09583184998988
H        20.68127846269462    9.34496073230277   11.83285795185569
H        26.56140623957117    6.76557506206943    9.51721078210454
H        26.61365942555643    6.60520657094509   11.26070100002081
H        25.26433014665977    7.45079993465927   10.48731247474950
H        26.94316593582556    3.50456276710698   10.14846580611986
H        26.24043077608595    3.46178720064259   11.75283839800213
H        25.50158970590444    2.56196429377076   10.44398605944887
H        25.26438014333143    4.48181819109662    7.78496608111757
H        24.02993654786848    5.70721647748481    7.98966591252550
H        23.64868621250785    4.01475001556051    8.28030659943728
H        21.40014011156216    8.16625545766792   13.86395880508798
H        22.21953085570890    8.91590203744030   16.09325549206172
H        24.48833258853274    8.20270082159806   16.84853015376211
H        25.84259461196939    6.77346684890992   15.31380783258183
H        24.88453567023718    6.14168182003693   13.09643563838545

