98
CSD_code = NOKBAR | q = 0 | S = 0 | Stoichiometry = C37H56ClIrP2Si | MND = 5
Ir        0.50361014183883    3.76014813244560    4.36779559910852
H         0.55036567819088    3.76053382964292    2.82646352581380
Cl       -0.17797330553707    3.76018636939686    6.60810550464682
P         0.67111766999001    6.05296880818203    4.27274876507752
Si        2.84357227795864    3.76028822425114    4.32661893224461
C         4.08539579142716    3.76013300622959    5.81673198891041
H         5.09872521795868    3.76026709152730    5.42471510031090
H         3.97538559689389    2.88298820709341    6.44344164781353
H         3.97520815262901    4.63721837549259    6.44347053141458
C         3.24848815316213    5.43620244628384    3.46559511410907
C         2.27921021730290    6.44553692046731    3.49407748287593
C         2.54991803039795    7.68585489563359    2.92856121644709
H         1.79835431661650    8.46240053187542    2.93000569943924
C         3.77946777193387    7.93717047248096    2.34393779446967
H         3.98012639403021    8.90297456861124    1.90267289446877
C         4.74631995914416    6.94732001591698    2.32375395478635
H         5.70720996252289    7.13951872661802    1.86847025629206
C         4.47603773996170    5.71003297357835    2.88434116876167
H         5.23442781830280    4.94243610700460    2.86388232903646
C         0.68410444339076    7.03776839707431    5.85726613699617
H        -0.22924967714128    6.72667367728332    6.38225298237249
C         0.69759145873492    8.55871225951220    5.72643133297095
H        -0.17237679845518    8.91367264629213    5.17009858508134
H         1.60146284119838    8.87061829717933    5.19841661581304
C         0.68533116854501    9.20311427849259    7.11251060168219
H         0.69332961591136   10.29101537476080    7.00906046814451
H        -0.23371081285961    8.92350424528292    7.63346657472416
C         1.88722648017248    8.74637655577465    7.93157773786924
H         1.86051215642092    9.20775021464415    8.92110177178451
H         2.80719689019561    9.06690082392180    7.43608643518396
C         1.88328455234714    7.22729068904608    8.06041598820860
H         0.99348860283664    6.90945805776923    8.60801208943355
H         2.75782260689841    6.89598790144930    8.62451424245273
C         1.88251868650030    6.57293460755729    6.68267889296456
H         1.83325783228763    5.48928117660009    6.79530614133265
H         2.80577694706240    6.82477874141303    6.15147274675101
C        -0.58540398667115    6.93043333920637    3.21840787023508
H        -0.45411833959679    8.01576406135541    3.29570887170668
C        -0.45521845930288    6.52275570260102    1.75297445561635
H        -0.52754575553502    5.43593695292681    1.67635515018110
H         0.52505442792348    6.81271434750625    1.36855891806247
C        -1.55977361908267    7.16857350782411    0.92035561779195
H        -1.46219607156123    8.25679483026090    0.96271369449698
H        -1.45812084823824    6.86539128888230   -0.12362391791226
C        -2.93225432933440    6.76345110980423    1.44978215728801
H        -3.71812783482468    7.23384196634204    0.85473498862641
H        -3.04671487902636    5.68068500636530    1.36052070845020
C        -3.07509844499818    7.16850957208970    2.91365303713323
H        -4.04981819756969    6.85576618095120    3.29535007706839
H        -3.01983851121055    8.25769355790132    2.99494379378667
C        -1.96527667013062    6.54313357848608    3.75246313402703
H        -2.05541201264640    5.45095907962163    3.72201400162924
H        -2.06830563929606    6.85546601141050    4.79549537310611
P         0.67095796560238    1.46726562592630    4.27276224222420
C         3.24841022434551    2.08427190841566    3.46568951822018
C         2.27911765358654    1.07492049246756    3.49411565937322
C         2.54984130117079   -0.16538021338098    2.92856781742441
H         1.79827549295864   -0.94191562430602    2.92998484673988
C         3.77939261975531   -0.41669513378643    2.34394463053532
H         3.98005885388924   -1.38251036812744    1.90270257318615
C         4.74622134486416    0.57317733171724    2.32371356161158
H         5.70713861878593    0.38094672753152    1.86850113327057
C         4.47593432686732    1.81046668639242    2.88431073686052
H         5.23436576688036    2.57801253463431    2.86392201148965
C         0.68406378945031    0.48262260770920    5.85735169359930
H        -0.22928438855487    0.79375883268907    6.38231526319822
C         0.69753614481971   -1.03830484813506    5.72642212506961
H        -0.17247254154966   -1.39325142215947    5.17014776580785
H         1.60137559082910   -1.35020928404111    5.19834472429034
C         0.68529748222731   -1.68268004500175    7.11250677447246
H         0.69328670279188   -2.77057657623187    7.00901242738081
H        -0.23372276430899   -1.40307126364538    7.63350977785180
C         1.88724519503026   -1.22593740266070    7.93149897650050
H         1.86055532150630   -1.68732412722447    8.92101350046514
H         2.80719450018822   -1.54648161304968    7.43597997308219
C         1.88335679587609    0.29315092193512    8.06037721852803
H         0.99358922327665    0.61099247476274    8.60800898640866
H         2.75792790984619    0.62445436046268    8.62442259135548
C         1.88251600376963    0.94753158688301    6.68266251355321
H         1.83326707351474    2.03119204700958    6.79528587240663
H         2.80574164202762    0.69566268734834    6.15140737642556
C        -0.58552725177919    0.58989023031979    3.21832549593082
H        -0.45417255742840   -0.49543150357953    3.29566953725817
C        -0.45532567953658    0.99770190672301    1.75292926104633
H        -0.52764829434357    2.08455201953176    1.67628797606824
H         0.52496506702358    0.70769491933564    1.36853323575948
C        -1.55981543753905    0.35175196849981    0.92033466421609
H        -1.46221360981150   -0.73648605006749    0.96271408674006
H        -1.45816865392865    0.65493604136779   -0.12364667412039
C        -2.93230791057479    0.75679077860488    1.44978123022324
H        -3.71814184945715    0.28631466391645    0.85475291455687
H        -3.04685642356876    1.83954498463994    1.36047233045005
C        -3.07514691385170    0.35175489647000    2.91366210959570
H        -4.04986380841092    0.66447151576953    3.29537879965907
H        -3.01984126054255   -0.73742507614902    2.99497698271904
C        -1.96537392865306    0.97724698300353    3.75243216382698
H        -2.05554671509826    2.06942674959293    3.72199330784308
H        -2.06836802961803    0.66488832756682    4.79545350580347

