98
CSD_code = NOKBEV | q = 0 | S = 0 | Stoichiometry = C37H56ClP2RhSi | MND = 5
Rh        0.57115192674068    3.76261265943999    4.47017664489475
H         0.74699153994781    3.76254527693762    2.96465246726076
Cl       -0.10026719764462    3.76290562359953    6.67593079335422
P         0.71463413182898    6.00793702427956    4.30803896319874
Si        2.88461274237913    3.76265788947285    4.45692813038190
C         4.04567815042166    3.76300043785673    6.00688126117244
H         5.07563868438622    3.76344931075755    5.66207273258774
H         3.90184417260481    2.88570829324098    6.62614493049003
H         3.90116419533329    4.64004642894453    6.62633222940946
C         3.28915702020656    5.41252553885863    3.55467274045867
C         2.30299760036240    6.40260742310098    3.50704040395450
C         2.55480028666025    7.61304442354890    2.87359685917483
H         1.78333494340982    8.36810445205683    2.81627020081280
C         3.79082607226943    7.85344841361152    2.29799155749395
H         3.98164651095317    8.79375887353010    1.80074477957638
C         4.77930767315428    6.88655065418891    2.36133867327512
H         5.74619561216148    7.07306002452559    1.91644695684372
C         4.52462083876537    5.67758176304485    2.98773189361092
H         5.30050003988660    4.92812983578158    3.02797118514417
C         0.70754570583382    7.09862901954627    5.81961166460847
H        -0.24301518628193    6.87117856824503    6.32210730871555
C         0.80989172825382    8.60276441414977    5.58119934282569
H        -0.00063970075503    8.95953766883699    4.94241915298192
H         1.76070968782886    8.82916737999297    5.09378048662596
C         0.74964538845100    9.34453665018622    6.91603480199222
H         0.81275216145786   10.42110537991778    6.73951056034320
H        -0.20761821017729    9.14033606036753    7.40172389719683
C         1.88523466202901    8.89717531312721    7.82980524504386
H         1.82599721554759    9.42538820301711    8.78381090923793
H         2.84270553864794    9.14808195298636    7.36621299284022
C         1.81183776330083    7.39132991219658    8.05859705539902
H         0.88526152938923    7.14568275242665    8.58154422956240
H         2.64454035138082    7.06681538420973    8.68615067750124
C         1.84712924362543    6.64314526754909    6.72984471334079
H         1.74885766953898    5.57176061136109    6.91331258484891
H         2.80235068791173    6.82533850843077    6.22659376102590
C        -0.62755526251105    6.72870947290895    3.23986588947619
H        -0.66387042478928    7.82038247922157    3.32789921569268
C        -0.43879777832078    6.34694340995764    1.77372119816493
H        -0.32048713610844    5.26238639488938    1.70267203715052
H         0.47188846455637    6.80207293094509    1.37848059795894
C        -1.64427576762948    6.77831963522375    0.94285691222996
H        -1.74360782317267    7.86655105668685    0.97785376134703
H        -1.49238667573684    6.49081843315466   -0.09973088973468
C        -2.91951085599581    6.13671287796885    1.48078979803169
H        -3.77847459427854    6.44844832558017    0.88271101119343
H        -2.83546080819757    5.04993511797548    1.40457358372088
C        -3.13031085591327    6.52652648775091    2.94026652066891
H        -4.03152879527336    6.04821476548672    3.33048676547142
H        -3.27099661067415    7.60869214608968    3.00899352737242
C        -1.92533488320344    6.12142595327293    3.78060521175360
H        -1.82017458098704    5.02348522464972    3.76871389936429
H        -2.07761886199353    6.42401058965825    4.82072070705039
P         0.71495714172795    1.51725392238332    4.30814776846216
C         3.28948066643236    2.11261539583188    3.55512376467502
C         2.30327692298130    1.12260138331144    3.50712745045445
C         2.55523297994720   -0.08790361518486    2.87389388166562
H         1.78367986027079   -0.84284722792766    2.81620670044855
C         3.79154855491821   -0.32851784677518    2.29900606877025
H         3.98252123349732   -1.26889433302998    1.80194510893903
C         4.78015623616643    0.63821570811550    2.36291519366343
H         5.74731845136677    0.45147439918796    1.91871812860770
C         4.52525235272521    1.84731431805183    2.98896934131089
H         5.30124024595296    2.59663011379198    3.02964666647011
C         0.70822666531199    0.42651313307127    5.81966882330446
H        -0.24246008912026    0.65346048563925    6.32214939773742
C         0.81130519081378   -1.07752828924575    5.58099062213726
H         0.00094545226830   -1.43458748444350    4.94214764820701
H         1.76222063976758   -1.30336451269851    5.09350385963408
C         0.75154050202048   -1.81959078227018    6.91568262353218
H         0.81514840750228   -2.89609274219142    6.73893503967701
H        -0.20575534076644   -1.61594360891296    7.40153888387638
C         1.88704309464629   -1.37185697101796    7.82937991136269
H         1.82825243549808   -1.90032003711565    8.78327329159911
H         2.84456885067170   -1.62214643130602    7.36556490016611
C         1.81289064429640    0.13389265837960    8.05852861647603
H         0.88624963511269    0.37893805143829    8.58164152651044
H         2.64550583005959    0.45870577358077    8.68604378594811
C         1.84764223384507    0.88236627136717    6.72993054067177
H         1.74887170243313    1.95365774733679    6.91363328600454
H         2.80290362696777    0.70076261626171    6.22654504644566
C        -0.62786379403162    0.79702060874308    3.24038705879624
H        -0.66548203538503   -0.29453764170982    3.32929002272994
C        -0.43857997241599    1.17754390656962    1.77398298582520
H        -0.31855388390400    2.26187057614870    1.70224189282892
H         0.47136064244457    0.72073508239446    1.37897490356995
C        -1.64475059174584    0.74752361457200    0.94341621408536
H        -1.74574837349775   -0.34053490229996    0.97903602778342
H        -1.49243337077564    1.03419888082399   -0.09933606596487
C        -2.91899372481334    1.39137063744419    1.48101101740938
H        -3.77843147120473    1.08074028963504    0.88304005234211
H        -2.83320356470975    2.47798116352022    1.40433551891702
C        -3.13040306457322    1.00249426091495    2.94064671262798
H        -4.03095043319601    1.48224464078624    3.33065003570705
H        -3.27261074588766   -0.07944175664257    3.00984936553141
C        -1.92487397890085    1.40630187627797    3.78079285289580
H        -1.81821700439904    2.50414005888403    3.76834817666794
H        -2.07754668990369    1.10445791351191    4.82107281739213

