69
CSD_code = NOKDIC | q = 0 | S = 0 | Stoichiometry = C36H26F3N2PPd | MND = 4
Pd        3.32825034043175    6.97524806204747    8.69851349274142
P         5.11745014808821    8.32682941170086    9.26774120600940
N         3.86311496447592    5.20659354330792    9.54797202198458
N         2.90719366201443    4.37977828875234    9.68384239094044
F         2.99820171512609    8.75766749687465    5.74929341667607
F         0.33969682111901   12.16764837368276    7.62383775882478
F         1.85035493337021    8.54137663597193   10.27698411467183
C         1.70010225414308    5.89479429279474    8.25130331906198
C         0.52895799434959    6.11959429765556    7.53606239391803
H         0.41860191406228    7.01754259904681    6.93925237008831
C        -0.51437044303421    5.20359984570926    7.55578787256315
H        -1.40562381558537    5.40162263928582    6.97653090783432
C        -0.43594269261175    4.03981341961896    8.31304377488479
H        -1.26364397998016    3.34582559673554    8.32477174828089
C         0.70008260637783    3.77927611649609    9.04399074320042
H         0.79816565767653    2.88828958071865    9.64572396717050
C         1.76060311648221    4.69534382847986    9.00936129638129
C         5.04308256553785    4.85383123600350   10.20594473456592
C         6.26657818775602    5.18041382609273    9.62136599207267
H         6.27940830011387    5.67300588873548    8.65626638422908
C         7.44373698341970    4.84108285548833   10.25720549439377
H         8.38969132859954    5.08583278227758    9.79749347457682
C         7.41378175221929    4.19478987016520   11.48291534689304
H         8.33709480562213    3.94698547152373   11.98437938331577
C         6.19928730302728    3.86387722694734   12.06309989973321
H         6.17711788784758    3.35640451122408   13.01602875214233
C         5.01566149168459    4.17751136591188   11.42656052327231
H         4.05949695999334    3.92917328627613   11.86206138796909
C         2.42100893896763    8.60862773255444    8.01927076270949
C         1.74483887216753    9.20601941772392    9.07247506465209
C         1.03685302488553   10.38668902435404    8.99670977135037
H         0.53673394243667   10.81740671937747    9.84777681261759
C         1.00793721768961   11.00102841092022    7.75520686560649
C         1.64606689562104   10.47216360625668    6.64845204101965
H         1.60972053885523   10.97282464029284    5.69467188314832
C         2.33871749078433    9.28401142494198    6.81390249691294
C         4.75665801290458   10.10177584123655    9.49691867579950
C         4.62964406522836   10.91951528373789    8.37585927533266
H         4.85024296216403   10.52295352742160    7.39432973386617
C         4.21815333895244   12.23121761025037    8.51353586568332
H         4.12070144768936   12.85686817919733    7.63879921794028
C         3.92161909750536   12.73980591290970    9.76751053879226
H         3.59060160640957   13.76211623387828    9.87174436627443
C         4.04551311374968   11.93188174917145   10.88506084796622
H         3.81423000589118   12.32395982900188   11.86470083734021
C         4.45680954290049   10.61777540968929   10.75336406684310
H         4.54198902033705    9.99007134689745   11.62939928671778
C         6.24816679780284    8.36918676750340    7.84321059635324
C         5.93652616935628    7.51457837520951    6.78656515131391
H         5.04356194958877    6.87738444783654    6.85356871042699
C         6.72496092784444    7.49858685167779    5.65017408110849
H         6.47758704220498    6.84103551421657    4.83044906643387
C         7.82493084173240    8.33661501986999    5.56239104384167
H         8.44315408249526    8.32444839928661    4.67700004693750
C         8.12203490323589    9.20791488171843    6.59885730600507
H         8.96620607262629    9.87708096097783    6.51621090993826
C         7.33298207265087    9.23402112174290    7.73459662236117
H         7.53898841549049    9.94323841218029    8.52462784965690
C         6.09336973723106    7.97324015613280   10.76968642127800
C         7.47068916289328    8.07362282501757   10.89973502714234
H         8.07826132250766    8.36955488537078   10.05795052261985
C         8.06903614570998    7.76769265541981   12.10987548176656
H         9.14210144911678    7.84275926049206   12.20958354798646
C         7.30203441330922    7.36382083888731   13.18932741502961
H         7.77689079449932    7.12685618415453   14.12976353441896
C         5.92679672375826    7.25073207990005   13.06080549144373
H         5.32850552510861    6.92349348914130   13.89829360390152
C         5.32643783899142    7.54713495968401   11.85308302826961
H         4.25080572024593    7.43763761089130   11.72642197650542

