94
CSD_code = NOKDUM | q = 0 | S = 0 | Stoichiometry = C46H44P2PtSi | MND = 4
Pt        1.97350462456071    3.09112807766731    5.29995908126573
P         2.31608727544788    2.17270959614962    7.43301312903169
P         1.25665175276500    1.15863649173427    4.26997570755475
Si        1.25213329716028    4.52137012618994    3.58298102869882
C         1.83502382584748    0.45750018806528    7.97142652619979
C         0.62548901614969   -0.06521531552456    7.19122387717671
C         1.00205718909182   -1.04104415192827    6.08029749512522
C         1.89844587426221   -0.42636109717255    5.00978050805522
C         1.36181896428971    3.21769746002440    8.57789992764556
C         0.11140728123951    2.85738220269064    9.06796184852148
C        -0.60411963878139    3.73821845547159    9.86064475256156
C        -0.08496913521723    4.98474364659470   10.16424516320223
C         1.15481329821931    5.35479263798153    9.66707990792540
C         1.87093313963016    4.48043771646179    8.87421823628573
C         3.98616207648130    2.26731296787824    8.14731406682886
C         5.05200682252627    2.45232264651967    7.27614423359404
C         6.34712666917061    2.50250861166506    7.75894549301593
C         6.57941030586002    2.36810945840837    9.11755130685328
C         5.51803478007160    2.18823660492560    9.99159711624534
C         4.22301237634157    2.13617986226104    9.51125453949389
C        -0.44977973313874    0.70279754784118    3.84619547386548
C        -0.80947199456218   -0.49532541347565    3.23634212781418
C        -2.14002728086929   -0.76094227415767    2.97000500458086
C        -3.12038441387568    0.15142760189392    3.32686883217360
C        -2.77123241896726    1.32847450136556    3.96614305043425
C        -1.44075718091595    1.60115698436163    4.22419286804480
C         2.23876033656801    1.08228166838538    2.73750106415249
C         1.86586875915875    0.49179341049475    1.53935769351360
C         2.74681054955987    0.49111798733640    0.47058143306811
C         3.99294287804969    1.08220666138626    0.58697616958460
C         4.36398147270756    1.68895974051523    1.77726035168797
C         3.48931521790805    1.68712527075577    2.84510101657066
C         0.21469153860642    3.83245739972025    2.12190701770267
C        -1.17442122185648    3.79123272521924    2.15445450092442
C        -1.90254638005014    3.25235233899305    1.10919538980796
C        -1.24940716048472    2.75138848552192   -0.00349870033293
C         0.13222080836988    2.81524417918680   -0.06923601150754
C         0.85107621998380    3.34929809392430    0.98419267505514
C        -0.01442090456458    5.59294891676262    4.55432403523310
C        -0.44061827494010    5.14003216836900    5.79921704886741
C        -1.35825856738765    5.84802053045288    6.55171028097474
C        -1.87031036429851    7.03937882558108    6.06456210018618
C        -1.45493150417568    7.50988794775939    4.83020315037559
C        -0.53636642206512    6.79060317025203    4.08523624742036
C         2.49034304245405    5.64715544953058    2.65655943846556
C         2.08729662906643    6.36608931136423    1.53751281730998
C         2.97337452863332    7.17113845910360    0.84496017919173
C         4.29173407413770    7.26581603534646    1.25757006137162
C         4.71302473069178    6.54975465920045    2.36481334902814
C         3.81715106007100    5.75136574139066    3.05283756273996
H         2.69885460675738    4.34576902369394    5.80462578021231
H         1.63455157006689    0.48177319109110    9.04584772606722
H         2.70096964390445   -0.19214042381601    7.81618559701301
H         0.08624490763429    0.77418027036041    6.73199042379837
H        -0.06867861780471   -0.56784533972857    7.86986324723187
H         1.51066720294809   -1.90835506510050    6.51357226306652
H         0.08066745490186   -1.39858020256857    5.61260221032324
H         2.88427177586109   -0.18246851722165    5.42333665741999
H         2.05480696944726   -1.14896162987411    4.20158151573976
H        -0.31460607189612    1.89337511583997    8.83048976577484
H        -1.57504636684166    3.44931332714175   10.23789025036863
H        -0.64844991430705    5.67014383842417   10.78013725755901
H         1.55899457386873    6.33033785504614    9.89313957871002
H         2.83189433045430    4.77058018433574    8.47140294658127
H         4.84578649982503    2.57479774320847    6.21793990267777
H         7.17385658633446    2.65032832902829    7.07971310399349
H         7.58884392537617    2.40941339229839    9.49959436925737
H         5.70308062178199    2.09116313417924   11.05164177489556
H         3.39263331672288    2.00842085447556   10.19248593197523
H        -0.05614013924207   -1.22677058580133    2.97862780440911
H        -2.41573396130239   -1.68742799796702    2.48653995430524
H        -4.15738270146563   -0.06349810460494    3.11441450625687
H        -3.53393579770913    2.03401222346857    4.26095815586088
H        -1.15303454388550    2.51672114747821    4.72561044420708
H         0.88258834675374    0.06231529382940    1.42146460530858
H         2.45172679455505    0.03413855853575   -0.46300102807096
H         4.67040672466045    1.08345110490555   -0.25432452736915
H         5.32692456780512    2.17024106982779    1.86398752158781
H         3.75057664633803    2.18859384695911    3.78048215143107
H        -1.69483236540462    4.20575759996734    3.00637353146388
H        -2.98266599509939    3.22508515897258    1.15963531057855
H        -1.81482233970801    2.32659466267048   -0.82137055235815
H         0.65045220896844    2.44799707891597   -0.94461608597271
H         1.92871881641287    3.40805548375723    0.91951069307636
H        -0.02924164771079    4.20688872214374    6.19434223605829
H        -1.67003582475066    5.47656649972848    7.51874475579934
H        -2.58707428874356    7.60130873408503    6.64719847901010
H        -1.84873281663209    8.44250553042560    4.44965960995630
H        -0.21328273586593    7.16813096351275    3.12610940748780
H         1.06516035500492    6.28489119351366    1.19482915317970
H         2.63800684172288    7.72440638240852   -0.02183809478953
H         4.98726218956579    7.89198445425170    0.71613644885761
H         5.74256445074911    6.61561858270258    2.68988673317166
H         4.14929638105442    5.19418300497993    3.91853831016670

