50
CSD_code = NOKGUP | q = 0 | S = 0 | Stoichiometry = C22H21N3O3Pd | MND = 4
Pd        5.79180313060142    3.04317912247899    8.85166170632206
O         5.84697583817069    4.22702977373280    7.23430586272535
O         7.09876924823916    4.53572589750913    5.43425379046974
O         9.63089806499346    4.28965707986737    9.32587072619624
N         3.82674461422176    3.10246710950155    9.09390489852740
N         5.66858224957234    1.90887898100447   10.46202746890478
N         7.71491780670708    3.23017289321508    8.65793321704912
C         2.95281491558376    3.70916287989577    8.29356089753779
C         1.66616464197078    4.01017895447506    8.69682543862010
C         1.27451719896216    3.67962350757190    9.99224222621771
C         2.17750032659417    3.05048779476619   10.82534680062091
C         3.45918947671653    2.75780271697039   10.35279462765841
C         4.47985447789552    2.03648514397088   11.10066467457501
C         4.27441164459254    1.44785556912585   12.35070997046929
C         5.28549560867200    0.71213298396081   12.93247035263210
C         6.48634190975019    0.56015810085110   12.24509983679272
C         6.63191813121689    1.17927271772498   11.01991073656756
C         6.92591589297430    4.08936597575290    6.54818231489841
C         6.58151714334915    4.89574216217919   10.85907437633257
C         5.89013073501563    5.05212382209810   12.05229411120033
C         6.37447427915477    4.48114539868221   13.21983331872269
C         7.57361489882019    3.79034753330554   13.20714638367682
C         8.27348179539248    3.63348094339240   12.02125922070371
C         7.77056408762891    4.15515297072305   10.83774664985095
C         8.48135562914802    3.91610878026207    9.51847532381347
C         8.03956387148663    3.25331420547336    7.25124621096035
C         8.08709289582518    1.85102042313062    6.60601411559783
C         6.76024001301839    1.09190063294428    6.73460929050846
C         9.22574841873033    1.03718731290123    7.21692191352254
H         3.31749369352084    3.96825789049079    7.30542682503759
H         0.98603579749869    4.49979025116115    8.01933508395285
H         0.28107269045487    3.91473214290471   10.34160912081539
H         1.89906936882345    2.79721655340732   11.83532750521191
H         3.33037208794989    1.56726599509344   12.85642896138696
H         5.14396856887509    0.25549328763738   13.89949268031053
H         7.29594904727382   -0.01674475065864   12.66027767534693
H         7.55737812170742    1.10530995287796   10.46185277295388
H         6.24174841115874    5.42171717397136    9.95949184174417
H         4.97625237919185    5.63019378094289   12.07405713509216
H         5.82548739576769    4.59436470191291   14.14361419124704
H         7.96419810470474    3.37010946504213   14.12257137870784
H         9.21293992729560    3.10091327496847   12.00468089660745
H         9.00993274376442    3.74705577972702    7.10355114594621
H         8.28875468645459    2.01658420512500    5.54227259829341
H         5.92788119046263    1.68574274685339    6.33626347491654
H         6.56482522228486    0.81926959953193    7.78806264082943
H         6.81450955397393    0.16886621381855    6.15903765475407
H         9.28921999347878    0.05585523943348    6.75116040699933
H         9.06083033227159    0.90856532094533    8.28572922589988
H        10.17448173806825    1.54917978735688    7.08157032223477

