61
CSD_code = NOKJEC | q = 0 | S = 0 | Stoichiometry = C21H27CoN12 | MND = 6
Co       -1.11367623837302    0.82079595971432    2.99361781475413
N         0.35705274620976    0.55573442782712    1.83440481095759
N         1.49458709714862    0.36492071132421    2.02755222131765
N         2.60649473986423    0.13503259686750    2.08558501558927
N        -0.56840040287276    2.56675357510183    3.33677261039632
N        -0.80772298526393    3.58271273565398    2.80898745720040
N        -0.95097124991296    4.62774199611272    2.38619991809553
N        -2.63532681076236    1.06704213010944    4.09371690349186
N        -2.80636674380828    0.99868951606925    5.24721650187692
N        -3.09044823198049    0.92018400992052    6.34684492022321
N        -2.17230351288899    1.45216503441491    1.46540764303797
C        -3.49430685495760    1.27964273919415    1.42084373985833
C        -4.29859737756382    1.80928464761850    0.42386560858939
C        -3.69001786615885    2.56392754653598   -0.57313806273458
C        -2.31568434482745    2.74075762709709   -0.55149439919888
C        -1.60303252373300    2.15081874344194    0.48646006931782
C        -5.77913436124185    1.59792966303886    0.43848490427914
C        -1.59743073521727    3.56340038809204   -1.57017330911022
N        -1.73187328250847   -1.06425219816501    2.62844701668553
C        -2.29682467795190   -1.82333566346511    3.56672569563449
C        -2.85111182021925   -3.06987113492950    3.31198369804671
C        -2.80323011878247   -3.54474063067495    2.00640679363706
C        -2.20353353456404   -2.77520612689979    1.01854514689485
C        -1.68345708989290   -1.54090411101995    1.38663598361499
C        -3.46731576942978   -3.87402129275489    4.41123610961148
C        -2.09549538698079   -3.25568614453445   -0.39314549227198
N        -0.04108393555016    0.23809540815715    4.51461743129689
C         0.08926820621353    1.01252341787182    5.59032347994448
C         0.84548023811801    0.66253896068321    6.70239928088348
C         1.52210486036072   -0.54740690286063    6.67316178840614
C         1.41775297515516   -1.35927619465257    5.55122373738783
C         0.61464018794211   -0.92473421922502    4.50739716246811
C         0.90135548703837    1.58577427222621    7.87491787447746
C         2.15882193569858   -2.65236150129125    5.43394748104431
H        -3.93747001266906    0.71877297942479    2.23064708334769
H        -4.28744702030972    3.01119137736162   -1.35480921892573
H        -0.52731773155303    2.25129962413790    0.51890862191225
H        -6.05680594566846    0.84186249941037    1.16762839767017
H        -6.13305564130149    1.29332278543901   -0.54466510319944
H        -6.28170284812591    2.52822723964858    0.70066943548586
H        -0.70767689009102    3.04766537802534   -1.92444699889487
H        -1.27760870782304    4.49904082033523   -1.11268325807373
H        -2.24157387241191    3.79102771332232   -2.41533671705933
H        -2.31932931432764   -1.42973268953988    4.57284132747564
H        -3.22743017310361   -4.50889354170877    1.76420315767365
H        -1.19137143627379   -0.91911413077110    0.65216989089144
H        -3.60659530016777   -3.26872051654264    5.30274672802378
H        -2.82486453838320   -4.71771389988423    4.66300275825252
H        -4.43073799398674   -4.27179780197925    4.09866622698086
H        -1.17880432431285   -3.83249358403616   -0.51738266555223
H        -2.06147282939813   -2.41836493477231   -1.08536056335067
H        -2.93464440466133   -3.89839550041302   -0.64828892201421
H        -0.41902373653474    1.96513909669632    5.57311677547059
H         2.13095235413828   -0.85413248900844    7.51150786591526
H         0.51961819158961   -1.54790846834694    3.62924209459156
H         1.51243450467038    1.16941576454229    8.67115539376647
H        -0.10412711843183    1.76219563135238    8.25323675419988
H         1.31622650480961    2.54682521833030    7.57640226459677
H         3.00197779488040   -2.52480788139875    4.75554425215026
H         1.51784841149465   -3.43141038507451    5.02625009236785
H         2.53818945964582   -2.97207029115813    6.40075677060925

