61
CSD_code = NOKJAY | q = 0 | S = 0 | Stoichiometry = C21H27CoN12 | MND = 6
Co        3.60567916010188    4.62945773263237    3.13514310975451
N         4.95671204914072    3.36764601675089    2.92996307255601
N         5.11892085677410    2.31167953215415    3.40782872705931
N         5.39697655968195    1.28233354353729    3.79979388518554
N         2.53823778609254    3.74373526869325    1.84600020976416
N         2.71689469980951    3.33342790408971    0.76599482063650
N         2.75269264565303    2.92568551838003   -0.29485984956829
N         4.60697649961172    5.54806402736443    4.45216042420379
N         5.60822421969391    6.15140842890784    4.40054934225585
N         6.54550939825180    6.78918693926647    4.48004695352371
N         2.79789242530347    3.52140993230189    4.53727338483006
C         1.57771012716883    3.00275419466199    4.39373771988119
C         0.99580174625976    2.12395186746677    5.29239072146727
C         1.72363871065169    1.75387782159308    6.42934136622511
C         2.98218265736984    2.31818274520673    6.58519022683461
C         3.48035281671759    3.18430620330355    5.63222034153202
C        -0.37164492388030    1.57848101039748    5.03205491908704
C         1.17371929853969    0.78912837912282    7.42547424708719
N         4.45120529383355    5.70622962267937    1.74909309028447
C         5.11724514560956    5.13683734245989    0.74318562292390
C         5.77985142909860    5.83806098553832   -0.25188980673160
C         5.76993794126083    7.23556564924377   -0.20160385516987
C         5.08222395999568    7.82362875948263    0.85209555333804
C         4.44418331319646    7.04083884724594    1.79217397371403
C         6.48843556761097    5.09904996054408   -1.33885162362125
C         6.47423210595063    8.05671422520142   -1.22820012407896
N         2.10900109574340    5.96550491182836    3.37175701887839
C         1.80881624411486    6.42390262599489    4.58592145927343
C         0.73466153750092    7.25577458391013    4.86081571672187
C        -0.09100095307633    7.64577158514128    3.79957549829953
C         0.23289994054697    7.16994471405060    2.53509974821501
C         1.32599797230949    6.34295034419986    2.36291288339822
C         0.47848519064490    7.71903970782485    6.25852654992121
C        -1.26533207477539    8.54055791654414    4.01666557122736
H         1.04372379019545    3.27957901552869    3.49551776121661
H         3.58943715561233    2.07293858395199    7.44243759876571
H         4.45866786697425    3.62613497559961    5.75391283399935
H        -1.04841212659661    1.83271735526327    5.84723794488491
H        -0.33599875366369    0.49259968045801    4.95748610716465
H        -0.77386327234110    1.97611940431607    4.10460346907715
H         0.99355249282682   -0.17511356483717    6.95172314906284
H         0.22257526952958    1.14488880115256    7.81988489345278
H         1.86698031168059    0.64759773377491    8.24979834656631
H         5.14343088274545    4.05704180787363    0.72889734052543
H         5.04755960364063    8.89776520821082    0.95080755295011
H         3.92335019093999    7.51304848118852    2.61263060343870
H         6.34324332940057    4.02854865993782   -1.23004710132950
H         7.55594230485334    5.31419299962376   -1.30973063949995
H         6.11296876029264    5.40472560254040   -2.31439282562562
H         6.35765076409772    9.11754116704743   -1.02407370687788
H         6.08047291788337    7.84227567147241   -2.22110178307100
H         7.53626803091684    7.81530885146740   -1.23725060775369
H         2.47680321656971    6.12713360269703    5.38285466430222
H        -0.36563148683975    7.44356712531830    1.67963833274942
H         1.57494776422452    5.96452500712291    1.38225096020904
H         1.22581348130123    7.31949562921845    6.93827949270548
H        -0.50723333130421    7.39727617977760    6.59285553600943
H         0.50599744810098    8.80677516967857    6.31058415695585
H        -0.94406928049027    9.49195575000577    4.43929879205838
H        -1.96260538096119    8.08820936703464    4.72090920749220
H        -1.78559239210896    8.73076288683233    3.08190702166624

