44
CSD_code = NOKJUU | q = 1 | S = 0 | Stoichiometry = C18H16CoN6O3(1+) | MND = 6
Co       -0.35789302318119    5.77393799743403    8.49485724777129
O         1.40239399104421    5.34602681718139   10.51752261224249
N         0.96134166856200    4.88117081287516    9.45374437909843
N        -0.25860811147432    4.20617280180833    7.31922725766645
C        -0.90977421351238    3.93886935242880    6.19084591483927
C        -0.64569914069821    2.82078568707534    5.42356410399738
C         0.34265003618684    1.93437129339263    5.83813098681542
C         1.02444658471253    2.20166270875052    7.00550480109874
C         0.70663505032890    3.35525858531512    7.72868852853652
C         1.34648695474320    3.74773232635679    8.93958649213729
O        -1.67159644509943    7.25712748491080    6.28232389607865
N        -1.79898819574817    6.57924265426467    7.44512056812377
N        -1.91578328629785    5.00440750653031    9.50595254567166
C        -1.93863908426208    4.18477165415442   10.54884369706908
C        -3.10785093750071    3.85877095826804   11.22116319377442
C        -4.30632913062725    4.41057226348132   10.79262093975250
C        -4.29202008541252    5.26820945456019    9.70524840355890
C        -3.07778187257143    5.54667080299543    9.08217992268648
C        -2.97561691424366    6.39378465854258    7.91380361983475
O         0.92627582775080    6.46548356557420    6.27726250500779
N         0.86875956594444    6.70349635488905    7.50935717315935
N        -0.14333861643351    7.28999711919314    9.72869550527100
C        -0.75730616077048    7.55960971929442   10.87386156583071
C        -0.28521828129851    8.49970836754177   11.77149658119503
C         0.88434724137756    9.18835595281335   11.47519812982181
C         1.52424429047172    8.92683932323534   10.28089389545553
C         0.98782355807415    7.96633099443973    9.42417247040275
C         1.49563255872940    7.65838011769247    8.12116534974530
H        -0.74004430158724    7.11383202049338    5.95894668966275
H        -1.67098403916702    4.63487475412630    5.87099934044304
H        -1.19852652453435    2.65364601900823    4.51435651933447
H         0.57380855699976    1.05806901390843    5.25343853085427
H         1.80380204061377    1.55096366917329    7.36686086562595
H         2.11086820579661    3.15657812653574    9.42508978351535
H        -0.99104403052230    3.77660655886875   10.87121607861436
H        -3.07317816482674    3.18662598043036   12.06271834254896
H        -5.23201764867981    4.17815190224314   11.29517016742731
H        -5.19947698952673    5.72053645588949    9.33840701762031
H        -3.85877580962320    6.79990327228679    7.43302628907856
H        -1.66163242908005    7.01062645257129   11.09470318177931
H        -0.82041730756878    8.67929254636609   12.68908293601530
H         1.28429398391627    9.91328189520632   12.16633005274121
H         2.43217911582074    9.43638603307230   10.00277309566942
H         2.24595151317424    8.25167796482034    7.61664882242726

