43
CSD_code = NOKJOO | q = 0 | S = 0 | Stoichiometry = C18H15CoN6O3 | MND = 6
Co        3.98838374649816    9.08039675122635   12.30928515576471
O         5.72445681994679    6.99595189129424   12.46564942532400
N         5.46506998121050    8.13420767544243   12.88288763871482
N         4.82891179468724   10.60082028777038   13.29121204828217
C         6.23855384965550    8.78987026538538   13.71053665969349
H         7.11035455055700    8.31401155422520   14.13845777853205
C         5.89123348105895   10.13644881786844   13.98790589818443
C         6.58979192497625   10.96602202118556   14.87951319987840
H         7.42682951238486   10.56246536641535   15.42581714203605
C         6.18196894488277   12.26810625532417   15.04582878544943
H         6.69792912795260   12.92393100553479   15.73087582311144
C         5.08678689337459   12.73220330403806   14.31823944581523
H         4.73910490496297   13.74718781792117   14.42109577351301
C         4.44384419293269   11.86031427147718   13.46274236474677
H         3.58818489403438   12.18581712221796   12.88511907291867
O         2.27091628229738    7.01236008098325   11.91531652019918
N         3.23823345724223    7.63162604120311   11.44806364002801
N         5.00733267751049    9.31104930684988   10.60986537751683
C         3.77145859909822    7.35965059743786   10.28406897442947
H         3.43282017943206    6.50585920050445    9.71314312502192
C         4.77776058103554    8.24139846194744    9.81435600068603
C         5.47751545543815    8.07364793371997    8.60889962706214
H         5.27680719312236    7.20593876273903    8.00171230603378
C         6.41162478677348    9.01138242871587    8.23783150601063
H         6.96792467779493    8.90124861522472    7.31912636726077
C         6.63412564000549   10.10981158208051    9.06730292482933
H         7.35727821954290   10.86610175329899    8.80874093203975
C         5.91329920511484   10.20914970248357   10.24036862825279
H         6.06433078389123   11.04568005147189   10.91058559446850
O         3.57233842466348    8.31914799994400   14.88439895175583
N         3.04537526109768    8.80034792874449   13.87036272993265
N         2.35002597033460   10.06084174592426   11.72960984427255
C         1.80287265531562    9.21007008629240   13.83179140106311
H         1.14996449420606    9.05871715357381   14.68057960740769
C         1.37857968528339    9.87185182917400   12.65165580263475
C         0.07377187164328   10.34229805021630   12.43407074533045
H        -0.67928652165816   10.16777567778327   13.18532510658761
C        -0.21626538219557   11.00234401880384   11.26374334345186
H        -1.21333719232171   11.36815988705263   11.06999717528258
C         0.79702698019462   11.19173171712484   10.32485144393779
H         0.60765549906182   11.70582041788038    9.39669881760286
C         2.05594299829356   10.69783928867749   10.60192392654397
H         2.86480289866631   10.82229527282219    9.89344336839257

