70
CSD_code = NOKKAC | q = 0 | S = 0 | Stoichiometry = C29H33ClN4O2Ru | MND = 9
C         7.53045063129767    7.64300417383099    7.81618019212602
C         7.20212639109339    8.97361619621998    7.44020225090221
H         7.07898591825016    9.32665258786182    6.43533811865148
C         7.09829881882970    9.69851767166587    8.60209903794636
H         6.87972910903315   10.74365141690483    8.70453420471731
C         7.32731226950100    8.79834389969055    9.65808129156488
H         7.33504504969260    9.00862111660728   10.71481891025288
C         9.07423560443961    3.89650326031266    8.94109886086026
H         9.31145688854122    3.47557469961137    9.90423246597531
C         9.38232910307726    3.37352022587956    7.67182746192411
H         9.89872532486957    2.45312210066091    7.48119330355161
C         8.89611342711406    4.26854059252787    6.75094364268671
H         8.96458138230803    4.21441921999235    5.68237513865178
C         8.31695088090207    5.33878237776121    7.48685194986208
C         7.83934125032396    6.55548619802362    6.99385650220433
C         7.68091991673214    6.69041574980236    5.53678350434339
C         6.82504658431044    5.84599097024286    4.86597530706006
H         6.27478726881216    5.08680138815317    5.40048289218313
C         6.61748294646898    5.95232609661041    3.48676480886110
C         7.32053059230542    6.92685468686065    2.72611914405343
C         8.20471791007127    7.76737489272060    3.44125449919280
H         8.76340745966795    8.51024211614241    2.89637493511961
C         8.37236636471652    7.66095635326686    4.79556146895675
H         9.06628108934804    8.31145864486882    5.30545320188413
C         7.80785020932200    8.02251587223202    0.55858876702769
H         8.89677992271003    7.88768169308728    0.59799823038827
H         7.57949686427501    9.03698892139563    0.91048013847470
C         7.32387276092245    7.85845572551271   -0.87806677905477
H         6.23988117129258    7.98796293299668   -0.90771997144973
H         7.55048883411058    6.84605828413710   -1.21898534158766
C         7.98089178203203    8.86826747405427   -1.81640259270605
H         9.06497888733554    8.73874436023688   -1.78530505741803
H         7.75788578427746    9.88051305948252   -1.47185764177416
C         7.49143537954438    8.70138918920488   -3.24937304912142
H         7.96950363958526    9.42691419672874   -3.90256366274139
H         6.41507028103204    8.84669735621764   -3.30437439029153
H         7.72107616566702    7.70419281467902   -3.61748724253049
C         5.45266673557488    4.99180984142104   10.20702257803974
C         5.33992891503084    6.26166128521290   10.81897440638474
H         4.62279291501256    6.97946013033259   10.43723865978224
C         6.04023098436874    6.59016006355483   12.00512249664328
H         5.84390857125818    7.53652418599982   12.49685376741954
C         6.93980592832840    5.67655435084772   12.57955884633285
C         7.07617590478206    4.39818725155132   11.97483207156327
H         7.69693851235523    3.64846944150181   12.45303595113609
C         6.35269906929536    4.07398997043271   10.81678566961330
H         6.43605762284345    3.06705297439565   10.42515408157070
C         4.57908119707485    4.60354475420520    9.02742201149645
H         3.61105374810669    4.27588311428910    9.43537717742272
C         4.32743641145377    5.79326736722032    8.09463021333750
H         3.68636845667959    6.54174273774710    8.55341474219659
H         3.83571099615256    5.45168444590106    7.18724903212849
H         5.27128545793849    6.26146818230770    7.82018327630966
C         5.16848655347905    3.44745046782860    8.21495399573347
H         6.18819264622001    3.67636482062195    7.91148381949288
H         4.57399603134209    3.28968245981968    7.31837901257660
H         5.16632303070858    2.51632705686517    8.77651599505639
C         7.71288865350478    6.01326287875585   13.81472070328260
H         7.79297003710576    5.14920147281543   14.47176314765976
H         7.25363004555983    6.83842448173790   14.35467420834881
H         8.72381595625107    6.31288932626723   13.52221936236554
Cl        9.66042707592903    6.59240742295248   11.09273829422168
N         7.56953355172759    7.58294013980125    9.19492364481152
N         8.44120109114481    5.05308657764385    8.83036698298739
N         5.68015332614258    5.06302566876806    2.91673386295144
N         7.15934655885494    7.04987203660363    1.40211384935437
H         6.50942762951765    6.39997826950478    0.96746684149811
O         5.07552672676865    4.30372645165164    3.65344864730921
O         5.49480935049593    5.08339105552930    1.69935492176236
Ru        7.53099644518758    5.95545079975644   10.36115322846611

