88
CSD_code = NOKLUV | q = 1 | S = 0 | Stoichiometry = C45H40P2Rh(1+) | MND = 6
Rh        2.41448237568438    4.60643817023045    6.99574862106294
C         1.29082998270499    5.21227466161461    4.18095471045156
C         0.97526845057316    4.23133062996187    5.29049501838866
C         1.70088747367556    3.09359392082597    5.54113803153865
C         2.93704634474449    2.75895251047763    4.75620286038354
C         3.46221272824664    4.06231104807567    4.14253427149461
C         3.80511610630181    5.02062824649081    5.26390834650520
C         3.08510478456308    6.15210828619832    5.55685967996983
C         1.83125969826859    6.50285359398672    4.80806197238246
C         2.36515502203482    4.64612250374782    3.25570990342590
P         1.10969797122489    3.72885373453156    8.64900158839874
C         0.81885438172240    4.70575263237162   10.17079290937094
C        -0.39783356779510    5.34297276961455   10.39946899812161
C        -0.59953040386638    6.12692849396417   11.52020901193596
C         0.41607414015079    6.27885453439234   12.44664774363039
C         1.61626237429638    5.62414032872302   12.24976646715871
C         1.84232247220015    4.84753029794085   11.11628375658873
C        -0.57933329781099    3.27487932076443    8.12945955286392
C        -1.37891201352040    4.28762382122325    7.59419753026983
C        -2.66068111891129    4.01297485446990    7.15616325955793
C        -3.15126482482160    2.71829684276197    7.22675832295609
C        -2.35301659742258    1.70386649471190    7.72687346295613
C        -1.07046770101435    1.97592420424545    8.17379164073273
C         1.80126153377039    2.19545970511780    9.33215129588215
C         1.22459013397185    1.56467415648329   10.43080933541273
C         1.79230799822105    0.40884895741267   10.93301546874433
C         2.93538584702149   -0.11645360389010   10.35008100671337
C         3.51521316584789    0.51255564483710    9.26049555355421
C         2.94715876862392    1.66538966853590    8.75144650102337
P         3.75881238430170    5.44012815404610    8.64027633488898
C         4.12017870673387    4.36952548846145   10.08187195190329
C         5.34882197288169    3.72600647928499   10.20678238457054
C         5.60094326299127    2.84985672003740   11.24595957025011
C         4.62441896606621    2.60803275476437   12.19499513222439
C         3.41562313624983    3.27034187187348   12.10637333908816
C         3.13873259131751    4.14083352675012   11.05516198292649
C         5.41282675366264    5.99421034866241    8.10159942457758
C         6.24533989043342    5.05863207682202    7.48305491755759
C         7.49745636656777    5.42559520108773    7.02650199484648
C         7.92516378746819    6.73709886736147    7.16126138153714
C         7.09307246341204    7.67708148966171    7.74475562699776
C         5.84080064595390    7.31229234746079    8.21004768153256
C         3.03907030592504    6.90954287053096    9.42719125694774
C         3.61239399768021    7.48652470337177   10.55661246371042
C         3.02575243632335    8.59878346755221   11.13040161323208
C         1.86818820243392    9.13476411708202   10.58710517522004
C         1.29307044389512    8.56061431965533    9.46520424561235
C         1.87950426476649    7.45110217342659    8.88554414345393
H         0.37331375445565    5.42515118334278    3.62502184963971
H        -0.03968249549664    4.29228750420886    5.67191761134874
H         1.23726306002958    2.27254073650270    6.08932543738322
H         3.69561484780850    2.29761368783670    5.39865808573877
H         2.69115808846380    2.03116781463852    3.97722757693061
H         4.36553989171015    3.86092455679804    3.55970855542576
H         4.82989675425311    4.95501458304650    5.61670734512981
H         3.56194382703642    6.96212783355346    6.11023623259744
H         1.08861364291071    6.95193010384404    5.47709351458571
H         2.05981900102991    7.24562679676741    4.03795639825147
H         2.76296598579466    5.43607089320342    2.61761393745237
H         1.95116592275072    3.86836382024986    2.61288097610024
H        -1.21396927522682    5.21311789358414    9.70692425443701
H        -1.55253014287443    6.61032981819857   11.67004594653011
H         0.26981503120290    6.88756636472738   13.32517283897563
H         2.40779135545051    5.71823606659443   12.97887012217928
H        -0.98378402502304    5.29506858208572    7.52209174702302
H        -3.27523978385137    4.80468878619792    6.75428978297963
H        -4.15103765306503    2.50128812492057    6.88425864614584
H        -2.72833267679713    0.69281680455356    7.76965712809126
H        -0.45496648439792    1.17450682781152    8.55576608457192
H         0.34076330896518    1.98767338614496   10.88937854589195
H         1.34533966472060   -0.08350171002538   11.78337806620176
H         3.37649355779997   -1.01684764950100   10.74902738159251
H         4.40818985192439    0.10348566233777    8.81255140593897
H         3.39498533784304    2.18359041776353    7.90571168154752
H         6.13612823550487    3.92416786636616    9.49764529604907
H         6.56205760475353    2.36411341440913   11.31451087166811
H         4.80860294766266    1.92477956209636   13.00919288852516
H         2.65608546475715    3.10856366805065   12.85726641283699
H         5.90294417685072    4.03723394701982    7.36073116457327
H         8.13784125713156    4.69176150073144    6.56026380398915
H         8.90123856685273    7.02572708640027    6.80366842190860
H         7.41755657073570    8.70223621155090    7.83814071823907
H         5.19889437094484    8.05731463968565    8.65693176356104
H         4.50932657109118    7.05624630367491   10.98171591586683
H         3.46956572189432    9.04896830462260   12.00538215816052
H         1.41254586313190   10.00094516866303   11.04159178121450
H         0.38968992005704    8.97856475681372    9.04723575476422
H         1.43726957338735    6.97618527263653    8.01152445307948

