56
CSD_code = NOKLAC | q = 0 | S = 0 | Stoichiometry = C18H28BCuN6P2 | MND = 4
Cu        4.70852052581486   10.08020554231550    1.33840962570792
P         4.52981928741878   10.02820773560246    3.66808029510730
P         2.63726057489588    9.83982809101216    0.30375755339281
C         3.05209868925062    9.40685060843061   -1.44214385139020
H         2.12236849564610    9.28882382524376   -2.01152461545053
H         3.61295883383158   10.25361976960513   -1.85197568217371
N         4.25682214973315    7.54910665613675   -4.03801773196158
N         5.45646188234324   12.43833351991320    7.12097511070747
N         3.71625950018167   12.41074027123126    2.67442063098795
N        -1.68062357797918    7.88621331453196    2.35499723333226
C         1.96590589107941   11.54943851144707   -0.03414815067047
H         1.58875549717497   11.60908365799581   -1.05935979702920
H         1.13311707897759   11.74030935526539    0.65115390887279
C         4.22187543774946    7.37772726417148    2.10987250753114
C         4.76337469094340   11.57541882305887    6.83684051968474
C         1.01343989291824    8.95916131393741    0.50206813653912
H         0.25019856550176    9.42926649769891   -0.12564958595780
H         1.14413403641609    7.92204957698472    0.18783991551350
C         3.05835901298509   12.60312041328847    0.19059130482392
H         3.94041386612186   12.39951360157167   -0.42692923218866
H         2.69420678953645   13.60919135809809   -0.03719876970680
C         6.20028922982130   10.65417929931626    4.13907029637691
H         6.34620684258114   10.55212092882290    5.22046678876441
H         6.91355851048782    9.99344669025915    3.63095133897625
C         0.61658450194082    9.00521324704144    1.98031271485053
H         1.37398570181236    8.47701889751346    2.56863334602702
H         0.56511223448080   10.04032592877380    2.33657911251880
N         8.89317929364438   12.70270324154594    4.38050104207955
C         3.39965136655083   10.63518244907320    5.01676907041270
H         3.17351020072575   11.67917216498802    4.79191475398244
H         2.47257489824598   10.06493267484081    4.88466355739264
C        -0.66237209165736    8.38086353746355    2.19833732485499
C         3.91596172440361    8.14861356380690   -1.54926985398288
H         4.88527220185336    8.33052154241052   -1.07430684062957
H         3.43813745061139    7.30149860233725   -1.04965576926947
C         4.78107496393575    8.27224180598555    4.27947228432846
H         5.52770941763519    8.23477478263843    5.07762126424338
H         3.82890974163464    7.89769107945415    4.66909078388301
C         5.23913146348703    7.37505076972675    3.12171848315920
H         6.16437195601095    7.75639700339622    2.67846663993977
H         5.41119050067029    6.34906214293749    3.46145046004183
C         6.47434616930631   12.09537060685632    3.70757881464013
H         6.37020923753577   12.19058536709062    2.62220548906219
H         5.78124668003809   12.78653430986308    4.19320590598955
C         3.46002960866798   12.53372465350554    1.56363481894616
C         3.86635934403857   10.50684656773756    6.47313914506292
H         2.99521942532615   10.57745066565544    7.13306096296924
H         4.35468384299917    9.54761440435138    6.66503878094635
C         7.82025500649744   12.45449956133754    4.07566982603530
C         4.12488976341818    7.80791676499445   -2.93269198907418
N         3.36666637440056    7.41801945665948    1.34799212341103
B         6.54343885255015   11.47189988898320   -0.49179870330433
H         6.42803763802349   12.47184855369744    0.12976831209156
H         7.63451222362345   11.06394032017467   -0.63396288905082
H         5.81702172411669   11.36098602463897   -1.42027767894622
H         5.97531688004428   10.35774279440072    0.53129095753325

