87
CSD_code = NOKPEL | q = 0 | S = 0 | Stoichiometry = C47H31CoF3N5 | MND = 6
Co        4.33575896488602    9.57919853863677    0.84695971588332
F         5.66385793456585   11.81795875982734   -0.14255843962971
F         6.71265902707589   10.84407510223273    1.44664540760019
F         5.00998378360997   12.06171941185765    1.88345944650743
N         5.86071575839477    8.58168961406358    0.05570721166014
N         3.74748018763773   10.11976286229634   -0.97886339556277
N         2.78247321994552   10.54980137453769    1.62410211269690
N         3.29202200586098    8.02911734569589    0.72670180909125
N         4.91682393286630    9.04836549642550    2.66892881210685
C         5.45217417195262   11.11809654894829    1.00594326999337
C         2.66845231686803   10.88369637163718   -1.30440177488322
C         6.07619970518492    8.92761162250517   -3.68657945642555
C         6.81776897453942    7.88557645705858    0.72967411230979
C         0.81994313320904   11.71781415620520    1.86285498325353
C         7.40356355071837    7.73852643954554   -1.42134575419566
C         6.01976932889575    8.31819874577415    2.99324316900041
C         2.46209441122973   10.65649913337622    2.94309847837997
C         4.38646466777382    9.86208648773960   -2.15340564248190
C         2.69392313317519   10.41319429418861    5.38432067422047
C         6.20203272715999    8.50378737626129   -1.26024225510274
C         1.72786358074372   11.40187420897638   -0.42417177628897
C         5.09814647642629    8.87476711575771    4.95103781524874
C         2.62382910953650   11.11166163849991   -2.71944459711152
C         7.78472748313375    7.35166827249964   -0.18423272564036
C         3.18047264158717   10.14314293047545    4.01503364159316
C         1.22934479101990   11.37084232875070    3.10258762526608
C         4.33944934749116    9.39637269439236    3.85226416721981
C        10.21140328404471    5.54573438242470    3.68508234649735
C         5.53375491761102    9.09879091133592   -2.32143978560668
C         2.67815425747297   11.71492267326331    5.87565452333070
C         6.05110059914108    7.68401048128184   -4.30884217073105
C         6.91911989621521    7.74137339283268    2.10659957224127
C         1.77688514504417   10.93686893580673    7.95918082887031
C         2.24549324202658    9.37726539232411    6.19745001287183
C         8.14739991701708    5.60022163617828    2.46403179898574
C         6.13544507401702    8.19355791686086    4.41661030330439
C         7.09730816013037    8.61650613561309   -6.25575083072035
C         9.06259859048309    7.62773492906026    3.36272314062320
C        -1.48060873292809   13.72394087996221   -1.99580799517612
C         6.61972361261869   10.01419777874683   -4.36428149442961
C        -1.38108493576628   12.37839935566646   -2.30784664960804
C         7.12965251057477    9.85696442169401   -5.64029326204837
C         0.50394257107776   13.55552921735780   -0.65763524492383
C        10.13308540313474    6.91583303287112    3.87258656727430
C         2.22505861462548   11.97298442668298    7.15660470859273
C         9.21635865356336    4.88981536885042    2.98010605607567
C         3.68743011148555   10.46876757898077   -3.24826785599585
C         6.55617865779950    7.53104100234312   -5.58759866712834
C        -0.53505931316383   14.31026189378512   -1.17089660014654
C         1.78726195456310    9.63911382262880    7.47611364209712
C         1.80607006819623   11.21738203344351    0.95016897508187
C         8.05927145875765    6.97498504718108    2.65375067513358
C        -0.34007420806890   11.62237698771105   -1.79999763972858
C         0.61223969596834   12.20357726868251   -0.96871154995768
C         2.74277978844480    7.02315727781750    0.68524449803344
C         2.05807212517829    5.76827597658850    0.63053371958974
H         7.88763252685573    7.54796969838018   -2.35898674898582
H         4.86158388131156    9.02474577023871    5.98600859216847
H         1.88016063095698   11.69624451023876   -3.22419796673798
H         8.64585625953782    6.77938110330115    0.09980187075158
H         0.74837308034667   11.56215622703620    4.04166990322614
H        11.04638545154020    4.99030975964492    4.08630926774157
H         3.03450234221159   12.51781800778856    5.24747718387077
H         5.62609742202178    6.83868581912480   -3.78614938742814
H         1.42095635229521   11.13979299304434    8.95852313005153
H         2.25035640950854    8.36535005626843    5.81751889024870
H         7.36862852427054    5.09032207268035    1.91444748002939
H         6.91285520610975    7.65713472958313    4.92415872615079
H         7.49341074896258    8.49560139474375   -7.25327042173445
H         6.64621284988969   10.97771173988098   -3.87718056051070
H        -2.11689843811384   11.91639597003194   -2.95019231714969
H         7.55421009231899   10.70532336943424   -6.15689380049248
H         1.24776104876047   14.01033029956410   -0.02017333631794
H        10.91016184200536    7.43203821614302    4.41730629196499
H         2.22156185925673   12.98633639471090    7.53070678346557
H         9.27313201747419    3.82094445530966    2.83223421348180
H         3.98327931062785   10.40304692274768   -4.27678679509271
H         6.52770456490169    6.56172415907339   -6.06425686757709
H        -0.60697766584293   15.36021716000009   -0.92744448013411
H         1.43714981204420    8.82771523929872    8.09789285010703
H        -0.26259069487447   10.57127861143533   -2.03965733265498
H         2.01722929319785    5.33047007611941    1.62774467689410
H         2.58918484554069    5.09169534612799   -0.03885691646351
H         1.04395033036035    5.91900304786441    0.26101602403904
H        -0.06539048086035   12.25147887196858    1.57786296560444
H        -2.29221747847868   14.31396861471205   -2.39530980871259
H         8.99908257111157    8.69731387736654    3.49748963308577

