53
CSD_code = NOKQEL | q = 0 | S = 0 | Stoichiometry = C14H29ClN6P2Pt | MND = 4
Pt        3.54281919108208    9.30310914309890    6.59190259640258
P         4.24395924244034    9.33914965836648    4.44224719383402
P         2.55970885334084    9.46647856231079    8.62538448147950
Cl        1.30783420919254    9.74801006189756    5.85921703385955
N         3.64536760882920    9.51560068116049    1.76354165666264
N         5.55815381710161   10.81283715821294    2.51894083837679
N         5.72801132613897    8.39291938210450    2.32246232969027
N         2.47889525562822    9.47974562798249   11.38385870510287
N         0.54817926576476    8.52755569423902   10.24944457241978
N         0.89360950254665   10.93384286489341   10.24947016794232
C         5.40060731105187    8.75165157518904    7.31009606924959
H         6.21658916249361    8.99907748049862    6.62259064057704
H         5.62904424212502    9.23355889973925    8.26614192255405
C         5.34870959341607    7.23826714192480    7.50416896913895
H         4.57663193636334    6.96427495181872    8.22583325320764
H         6.30255980091965    6.85921487487329    7.87638770525027
H         5.13336297214482    6.73015473963166    6.56255353885224
C         3.00760668447815    9.36569801057341    3.05690443425667
H         2.42824078120934    8.43592733095296    3.07116419099979
H         2.30958933260997   10.19330644199592    3.22002692722697
C         5.19793353302801   10.85059444952492    3.92270805505247
H         4.58380170190117   11.73883909373921    4.11039683395829
H         6.10947821944829   10.93150097484258    4.52559476560470
C         5.39377525905319    8.07546743893302    3.69700681362481
H         6.31665477409955    8.02340437203388    4.28393897316966
H         4.91417658780278    7.09039710346277    3.72406893742968
C         4.54589204412229    8.41423874095508    1.47362663205537
H         4.87885901838018    8.51044563744208    0.43501388944364
H         4.00684425100288    7.47016266475005    1.58889776063528
C         4.37964612964920   10.76472745219222    1.66584707867748
H         3.71532203171260   11.59185052094865    1.92857806848587
H         4.70908019897649   10.88591162876981    0.62875512459770
C         6.40774041557627    9.67349142283794    2.21428341375962
H         6.76230516514522    9.78148576697957    1.18405261337021
H         7.26803090400317    9.67899764542850    2.88935510028595
C         3.41214543043682    9.34844260153628   10.28053042331591
H         3.92518541150195    8.38457526150581   10.36651592064325
H         4.16388410612124   10.14166731766985   10.36006777057795
C         1.59612020222250   11.01442567515864    8.98457629501836
H         2.28021377694257   11.87089072692672    9.00874996151350
H         0.87480866813078   11.16966874030870    8.17575516778214
C         1.19806317640230    8.25383932977374    8.98350309005281
H         0.46093321597255    8.31244159239610    8.17577058671896
H         1.60884940086993    7.23740283768939    9.00505009869186
C         1.47363950025273    8.42865811507583   11.36470993457103
H         0.89603001871505    8.49827327693628   12.29229300849565
H         1.97456875999904    7.45706069152479   11.32963142800373
C        -0.06890485780451    9.84441656704590   10.25944430787437
H        -0.66985161617017    9.93030837488443   11.17068874001742
H        -0.72130565621159    9.93794112113098    9.38806702199175
C         1.80695429255691   10.76993333183187   11.36651791514319
H         2.55914179821259   11.56314651685154   11.33400357817536
H         1.23110404907439   10.86231272744513   12.29326346418140

