125
CSD_code = NOKWUG | q = 0 | S = 0 | Stoichiometry = C44H74N2O4Ti | MND = 6
Ti        5.18109204157584    6.21142212386217   16.28061491137935
O         5.44959040144434    4.89138024971943   17.47491336108081
O         4.99317992688516    7.18686521286975   14.77337691759505
O         6.89908667843665    5.22267143743787   14.98994496310896
O         4.21964493639538    4.39778345126744   15.08058207603547
N         6.51062086146554    7.19926137310694   17.19936317190771
N         3.45199513457911    6.81164524297100   16.77589954018286
C         6.69184249950163    4.97541614115493   17.95168139121206
C         7.34808850113879    3.93724863461902   18.62318536067443
C         8.68355380846812    4.12387244963578   18.98337148281739
H         9.19476625631064    3.32405465235377   19.48500736501941
C         9.36882228342857    5.29544096972027   18.70844498710122
C         8.68102647307392    6.35043237336581   18.11162738557383
H         9.21623866752268    7.26397985090396   17.91506149104120
C         7.33910244241260    6.23997011651205   17.75596025428041
C         6.59397313659456    2.65726963214350   18.97726923114606
C         7.43769051579553    1.65851027225319   19.77520563647145
H         7.77703203022130    2.09318248685255   20.71224558325402
H         8.30068751396188    1.32334712592957   19.20400328182069
H         6.83145036114209    0.78475684068334   20.00927226050452
C         6.11584835779989    1.96101092403154   17.69633212368209
H         5.51932551749813    2.65453605274067   17.10914259442858
H         5.50657163345868    1.09238896489657   17.94320608544862
H         6.96800897825311    1.62855535946395   17.10501123154005
C         5.37418896569974    3.03608918057392   19.82945043547706
H         4.72147795394525    3.69783081535924   19.26641885593530
H         5.69285206824434    3.54883827343385   20.73480077963547
H         4.81344445830073    2.14599870837638   20.11112160556215
C        10.84518397029734    5.48211503973913   19.03926247426869
C        11.00818590241058    6.66252840160445   20.00725046874004
H        10.42647829510371    6.48741102585347   20.90954819152146
H        10.66846828540738    7.59252712170223   19.56026806980063
H        12.05378505648282    6.78226515336023   20.28568044547286
C        11.46911304142532    4.24768979128947   19.69681718437465
H        10.98148748002101    4.02176587268073   20.64186104947624
H        12.52239383964779    4.43614667545410   19.89822876038212
H        11.40146332433583    3.37986089339981   19.04485690116033
C        11.61945385505839    5.76586898602930   17.74304735621546
H        12.67967943937347    5.89176746409599   17.95519505800581
H        11.26169581708412    6.67015199052124   17.25788475071584
H        11.50284836398053    4.93622448476805   17.04805928261245
C         3.69982235784081    7.37105185914599   14.50363005003272
C         3.21028255084876    7.83190651601780   13.27367411123002
C         1.82897206476117    7.88087521733770   13.09842164269774
H         1.43763209763740    8.20628493677477   12.15059720839259
C         0.93303108468490    7.51981449378610   14.09616964952425
C         1.43094089914970    7.16275462434016   15.34375766972517
H         0.74071891469041    6.91468556291933   16.12898829280282
C         2.80409846881092    7.10679592975784   15.58892496461610
C         4.17300325612690    8.32096237432346   12.19316018087981
C         3.46000364098742    8.85558159280575   10.94723655345753
H         2.87476047123069    8.07746553860732   10.46171903610717
H         4.20248394401102    9.21026304449534   10.23403898068815
H         2.80880423865262    9.68976452783236   11.19644614956186
C         5.01219155057518    9.46207913910556   12.78647351112496
H         5.56490224854827    9.10510787570030   13.65156566553031
H         4.36551551199881   10.27815709676708   13.10231273393541
H         5.71859838024883    9.84155749747366   12.04946993124926
C         5.10723323779232    7.18671655641907   11.75190717234912
H         5.64326035876976    6.79946981521196   12.61478845982766
H         5.83270864955812    7.55584297200606   11.02759510819280
H         4.53586598046849    6.38353049348345   11.28751457736125
C        -0.55977843938252    7.53984261731813   13.78887855888963
C        -1.42464669608152    7.11531751630062   14.97977137006485
H        -1.18987479207065    6.10111611905293   15.29610074405897
H        -2.47434740561171    7.14057043153514   14.69218174454114
H        -1.29242380758277    7.79217475697533   15.82056499511478
C        -0.84635096138177    6.57074256761847   12.63210471114832
H        -0.55739733010634    5.55842618119330   12.90918601814366
H        -0.29362780551699    6.84934222804829   11.73941000035228
H        -1.90774240755597    6.57334439481394   12.39064273802249
C        -0.97823494878889    8.96142942221760   13.38827405060647
H        -2.04794789981898    8.99988055662294   13.18996231847851
H        -0.45472747788717    9.28975362059463   12.49511556405641
H        -0.74896935328695    9.65801146927681   14.19181730989463
C         6.82411935122232    8.62176781207671   17.28739332245578
C         7.26432756724771    9.02848094586103   18.71092709473793
H         7.09867269284882   10.09415350892987   18.85497714384159
H         8.31350601503412    8.82536439112472   18.89470715269266
H         6.68150616697469    8.47795788586030   19.44641621723904
C         7.88804686845361    9.05953989937984   16.25676152456648
H         7.47713890703792    8.97249768237151   15.25295584863253
H         8.78662504035041    8.45303916382633   16.31388687944003
H         8.16265463689630   10.09830107603893   16.43023609534661
C         5.54845127646033    9.42141978843358   16.96185840684154
H         5.08514753591666    9.03114963232826   16.05769656274745
H         5.79872496314208   10.47050618473480   16.80998453702228
H         4.83316427994573    9.35223118403236   17.77693360353804
C         2.76823083307493    6.92449698052815   18.06135271141332
C         1.95412717609941    8.23391987228557   18.16943768833070
H         0.96221546091129    8.14257127244584   17.74047069754123
H         2.47534002231853    9.03442429347721   17.64889949026425
H         1.84082869586100    8.50936295208500   19.21588433985530
C         1.85991675554913    5.71038077911240   18.36058483591941
H         2.47578519725777    4.83339896294878   18.55469838712675
H         1.18868080508375    5.48876161158145   17.53592394323374
H         1.26090787414415    5.90966916025012   19.24720698877965
C         3.82960112300238    6.95808583712922   19.17664180276936
H         4.53193615399608    6.13682308072292   19.04821168708548
H         3.34628638751287    6.86430694647782   20.14832262332271
H         4.38276472362108    7.89304734955858   19.15166386691872
C         7.45244812316295    3.91685335234498   15.01111436824861
H         6.63507791220817    3.20396642238369   15.11524834401123
H         8.13071179819888    3.81824389648808   15.87160595541462
C         8.23003715802015    3.76918059512883   13.69010171880430
H         7.63569629549231    3.24281979069849   12.94435167063031
H         9.15443004387494    3.21588613280503   13.84244577291154
C         8.48692643195485    5.22371201998359   13.26171708591500
H         9.54280865872429    5.43250297360244   13.10504685641228
H         7.94892719086418    5.45719115755673   12.34340497886938
C         7.92140390101440    6.03470466326800   14.43644766349339
H         8.70260096509166    6.20664688187690   15.19194882485986
H         7.47088988742679    6.98288272846261   14.14298740349083
C         4.12056956681495    4.18483279204317   13.68259796020307
H         4.54839476034120    3.19831476924936   13.43403005963772
H         4.68424192355960    4.96657376054343   13.17835958238499
C         2.61843860171410    4.20466207841466   13.36460135121173
H         2.37456104756782    3.51935659319233   12.55457273729768
H         2.30621708728844    5.20972073122332   13.08424396009048
C         1.97202673288766    3.79565575186400   14.69971851077709
H         1.32801544720797    4.59461484875548   15.06262150558113
H         1.38899928771575    2.87971065487362   14.61929277629748
C         3.17797671261244    3.60927225355793   15.63375525557224
H         3.01082393707656    3.94893971096253   16.65459887778061
H         3.48937036268043    2.55139582458150   15.64107719909094

