109
CSD_code = NOKWEQ | q = 0 | S = 0 | Stoichiometry = C30H72MoO2P2Si2 | MND = 4
Mo        2.62629507661209    3.91486233890631    9.37569831586461
P         1.36088824367734    3.02077957101441    7.58668093558912
P         4.74825853342793    3.38465693593245    8.53715845654699
Si        2.22486626393215    1.31260123385543   11.61908641203209
Si        2.06645182180251    7.27589327681611   10.05543521746864
O         2.48820614235346    1.89536208485204   10.17530369190779
O         2.25321376179047    5.70304885177767   10.20396384365729
C         1.34185174211565    1.18903637866989    7.49766227548640
H         0.73438197891312    0.85264336701497    6.65691581708966
H         0.94738917776162    0.79815779089301    8.43202001550611
H         2.36400343442197    0.83065175152527    7.38740332864424
C        -0.44509604861473    3.38270811329624    7.52098101144702
H        -0.95937001488811    2.65877664085560    6.88940957090650
H        -0.59091086085263    4.38030243187426    7.11007354270212
H        -0.86646905588778    3.35094906967422    8.52315607364886
C         1.74043717982288    3.34680089703135    5.80225156254912
H         0.98681377063802    2.88365843604299    5.16600544282020
H         2.71652386211848    2.92559179329191    5.56431515454138
H         1.76138898422994    4.41684743273037    5.61062900577682
C         5.39005316554898    4.20745554953797    7.01267849544072
H         6.36259555918536    3.79731575822504    6.74288018687486
H         5.48829150418620    5.27338881439087    7.19835605549791
H         4.69350819092729    4.05691662006663    6.19032456294502
C         6.13842125913027    3.79819099378398    9.66838178603474
H         7.09955859746837    3.69974034107273    9.16472876253641
H         6.11133904926801    3.13299182596713   10.52809719789737
H         6.01331361055984    4.82230153198685   10.01681167162486
C         5.19262721053032    1.64943225381994    8.10797081817154
H         6.27271636199921    1.53750035203283    8.01391016349619
H         4.71565216646582    1.38059691326311    7.16554201687647
H         4.81757510602236    0.99686117532673    8.89377811615778
C         3.57177176589518   -0.06790613278598   11.95483202906200
C         4.95603317584344    0.57170697888709   12.07625336497558
H         5.72928740630895   -0.19732161116215   12.12388883101225
H         5.03556406589729    1.17360903197033   12.97718112192549
H         5.15332756880240    1.20046802384461   11.21148661758178
C         3.31899345366457   -0.87979290940569   13.22283882007813
H         4.12341722615257   -1.60174579699800   13.37346057889133
H         2.38691449026684   -1.43345088212150   13.15629512889734
H         3.27256521770947   -0.23812249696171   14.09829517688889
C         3.63339344770597   -1.02919406497575   10.76393472970375
H         4.54339097241560   -1.62998771749583   10.80321287342809
H         3.62364412740327   -0.47550303148362    9.82895350148154
H         2.78950318168575   -1.70925985491627   10.75717941548145
C         0.39777776379788    0.59398844155303   11.73093145824889
C        -0.11416150135705    0.41232210335237   13.16062551072555
H        -1.11806558745617   -0.01545532419241   13.14715733603307
H        -0.16490805833696    1.35941345810901   13.69024538646062
H         0.52913863818063   -0.25696956348876   13.72500437533029
C         0.31469839755141   -0.77055700006547   11.04331574216969
H        -0.72447303634996   -1.09765602275273   10.97266587420434
H         0.85531953234487   -1.52531438543522   11.60598071898437
H         0.72631141491569   -0.72753870194312   10.03848369490965
C        -0.56316839817513    1.52547229295854   10.98195302979538
H        -1.48453642201909    1.00211932169695   10.72180274710655
H        -0.09765220268717    1.88301211802362   10.06575338393692
H        -0.83569698832563    2.38734054325851   11.58187256196111
C         2.43519740330923    2.88898300329567   12.76548970965345
C         1.20831287840127    3.78428236665559   12.61617298263485
H         1.37757395026129    4.75211689288943   13.09347626172349
H         0.32589473461126    3.34480582395533   13.07057970565395
H         1.01489310880281    3.95806642840451   11.54813524240023
C         3.60280901425343    3.70780391401062   12.22813021733838
H         3.65616607630130    4.67575331842751   12.72966123474186
H         3.45127448324355    3.88809372313486   11.13264432031258
H         4.55265395352763    3.19927560790706   12.35622644293175
C         2.66792273770135    2.61116153179989   14.25032584645752
H         2.72843722135208    3.54801234421515   14.80740086133286
H         3.59758459007376    2.07039131953180   14.40730472980190
H         1.85679846925100    2.02141749584497   14.66820115136733
C         0.13569375682335    7.61588612673752   10.05705545042093
C        -0.52707287133370    6.87516485046576   11.22193521669521
H        -1.61104384519139    6.98797222642122   11.17007748285851
H        -0.19979721383125    7.24952747650471   12.18466469125103
H        -0.29198260987626    5.81499349071086   11.16921444762944
C        -0.48845804557112    7.02684001158412    8.78998118238246
H        -1.57720779589817    7.05530854615824    8.85487486427592
H        -0.17869438392134    5.98772763826783    8.68571724488489
H        -0.19773667968277    7.57820224203407    7.90049527033164
C        -0.23125025481879    9.09598131403699   10.14408491171580
H        -1.31187345506332    9.22112896811190   10.06229630723687
H         0.23711908831769    9.66762201542786    9.34748486992838
H         0.07895000031592    9.51781045565955   11.09637209489044
C         2.89009084498303    7.59662271561172    8.29484352905371
C         2.56212903316182    6.38275954121232    7.42981873926482
H         3.17360098018150    6.36784783480123    6.52653617264175
H         1.51564889155604    6.37483734633024    7.13979392080081
H         2.77689356923512    5.44879718764038    8.01066193673691
C         2.43078768479394    8.86867947249468    7.58168411935269
H         2.94281638408137    8.97128182359326    6.62345961714658
H         2.65795449763751    9.74658929276521    8.18067595794278
H         1.36249517666492    8.85732829033821    7.38837418696840
C         4.41388752242456    7.64660456335276    8.40466685387452
H         4.86429660025573    7.67887589532032    7.41013663075836
H         4.77567779330388    6.75967283657941    8.92314959016838
H         4.74601166530653    8.53081317163577    8.93898511174702
C         3.02405853687006    8.18503355186161   11.49810976526391
C         3.20839031093179    9.68044583868394   11.23956221980612
H         3.73489475905952   10.14264649676494   12.07559883055275
H         2.25034705890772   10.17978178015406   11.12735213799160
H         3.78976942541773    9.85980595814024   10.33951631034775
C         4.40339437051518    7.54976930641188   11.71068575845063
H         4.80685757038396    7.83735873308377   12.68238822728128
H         5.11245829587298    7.86984857204296   10.95528982278622
H         4.33209136677121    6.46543868475587   11.67533330639485
C         2.26071663081883    8.03116340628209   12.81477909570644
H         2.84590559500906    8.43607230045171   13.64216879694135
H         2.06163064446795    6.98253314813830   13.02052150979795
H         1.31746505338214    8.56866577628414   12.78759159420237

