41
CSD_code = NOKZOD | q = 0 | S = 0 | Stoichiometry = C17H22BrTa | MND = 13
Ta        0.98073062927452    5.74956954655123   12.49624018294939
Br        1.66883563099163    4.12778562158401   14.29323724007828
C        -1.29010878191555    4.43807906836323   12.41241490325742
C        -1.33363939844504    5.64138971034611   11.63722482486799
C        -0.64667615634477    5.37662592348779   10.41327840400583
C        -0.15766935648996    4.04289044026548   10.46162328631064
C        -0.58410955091819    3.45665805830476   11.67277965879733
C        -2.02044403517116    4.19383953816590   13.69527097488056
H        -3.03281054065064    3.83939111944955   13.49168433817445
H        -2.09693155954089    5.10663948949349   14.28594387061974
H        -1.50942009735993    3.43863021247367   14.29057575211349
C        -2.27232066322791    6.78347781767414   11.87779238771433
H        -1.91570814767135    7.69202818599674   11.39673420664613
H        -2.38794046212756    6.97770947395616   12.94319263184075
H        -3.25841407487192    6.55165860144195   11.47097052697704
C        -0.71482089014934    6.22035030438152    9.18246689515161
H         0.17856468241502    6.10925278465278    8.57119263553779
H        -0.84345838030666    7.27168627034651    9.42685685100098
H        -1.57021972676953    5.90805622704149    8.57903514117950
C         0.58725366902713    3.35254390304773    9.36403625660045
H        -0.10634829032107    2.81538892373986    8.71417020558305
H         1.29879414135651    2.63418857643907    9.76707024522399
H         1.13104632385757    4.06949368654713    8.75235816683900
C        -0.38459595616221    2.04140311864286   12.10618148691160
H        -1.34727116367354    1.57725740545606   12.32147378318621
H         0.21868192826411    1.98994127567832   13.01460237290893
H         0.11139881188498    1.46384932715648   11.33100801593832
C         3.38030330505499    7.59651538577344   13.03148002290719
H         4.12911774105554    8.02554604385720   13.68312958658725
C         3.68437828321312    7.10291280648708   11.83002780840716
H         4.68828490596253    7.13470132405889   11.42737291827947
C         2.59384981147288    6.57306423534175   10.96758953574108
H         2.97257846731794    5.96955816630845   10.13955512262007
C         1.76467752936955    7.69442471669326   10.52103463186637
H         1.74266734891087    7.94488220995880    9.46650814277177
C         1.01077267869786    8.40777412624212   11.39696165367456
H         0.39829878624601    9.22472076408980   11.03138928305613
C         0.88868129311961    8.04308494229919   12.77739239421603
H         0.15102086043236    8.59771532397364   13.35302442241360
C         2.00321751249253    7.46267586829505   13.52456168479033
H         1.90915289169488    7.61153947593596   14.60215754737681

