68
CSD_code = NOLDOK | q = 0 | S = 0 | Stoichiometry = C22H39ClO3P2Pt | MND = 4
C         2.42506335481927    6.04029400073439   -0.88040598230486
C         3.59088952303192    5.54883809777522   -1.44954483912082
C         4.37063200316369    6.33316072989756   -2.28515425987977
H         5.27535902678375    5.93208773148500   -2.71927904571791
C         3.96753171286280    7.63802805888997   -2.55153207312566
C         2.80169061999662    8.15488155798245   -1.99277893915436
H         2.50845989728745    9.16765115801848   -2.21215647118593
C         2.04476767455538    7.34655574271648   -1.16317978865143
C         2.41774693122768    2.04783918023735   -1.44604475138791
C         1.68598963610087    2.84132539445410   -2.53403824763954
H         2.37416593345257    3.48383578418404   -3.08149157524923
H         0.91262808288399    3.46901225031046   -2.07941132826696
H         1.20769156747634    2.16735761100386   -3.24284476033975
C         1.42568557428686    1.10954104407067   -0.76595724261230
H         0.89350632970052    0.52294860805356   -1.51349956130998
H         0.69500005300807    1.68079949321993   -0.19400198437745
H         1.92334499623007    0.42028497094749   -0.08981018420155
C         3.59809639438599    1.29211736330950   -2.04350848024008
H         4.02734044749308    0.60090240342583   -1.32195843752922
H         4.37007958527867    1.98647332171190   -2.37003747631547
H         3.26789305426903    0.71381246931576   -2.90583622369597
C         4.07770243093397    2.84448305808053    1.13511675928354
C         3.42532439064283    1.72415526930063    1.93700941851580
H         3.93058216822927    1.60812589384027    2.89493917136469
H         3.48390684314265    0.77477196549829    1.40994756279139
H         2.37854786853114    1.95736007183110    2.12863195772299
C         5.46996574091474    2.45660756379439    0.65052305739411
H         6.13411370069148    2.34172532912308    1.50649534601205
H         5.87820670949107    3.22730765653133    0.00063619250985
H         5.45549905021293    1.51639287820305    0.10657570729521
C         4.15404268936383    4.10741001543447    2.00073811474495
H         3.15142841006797    4.37602870793035    2.34728545793336
H         4.56808036107495    4.94152218718514    1.43255673944631
H         4.78356679605205    3.94043752057310    2.87345298313051
C        -1.59271069626836    6.79438621439426   -0.31510903927129
C        -2.04806902475881    8.15038843915776   -0.84192351456803
H        -2.95165925332310    8.02409709385739   -1.43734263439818
H        -1.28089577964170    8.59414337743933   -1.47232943366865
H        -2.27183451235587    8.83858794260446   -0.03178899796016
C        -2.58818258199011    6.21077653708162    0.68098425193844
H        -3.50257507505707    5.91813238613230    0.16652068013294
H        -2.85205506260037    6.93612766533734    1.44708460059140
H        -2.16831362682843    5.32756266814456    1.16109508360488
C        -1.40579034384377    5.81356955553810   -1.47834796604972
H        -1.07807479715273    4.84342267649204   -1.09224243723890
H        -0.65970402069244    6.18619303268015   -2.18146209828061
H        -2.34175876844358    5.66841686218436   -2.01569124941257
C         0.27956303904281    7.78351080185521    2.04484796010387
C         1.79550029770189    7.80839864405904    2.26817599185077
H         2.03075428345691    8.22054552714012    3.24810518175210
H         2.29359551078069    8.41363441261588    1.51208976469279
H         2.19552722031999    6.79043292929373    2.21733043441058
C        -0.26567182960652    9.20300338264152    1.95139792775781
H        -1.35318631443459    9.20677885750289    1.95562132280540
H         0.08645659163517    9.68751703568674    1.04258143785428
H         0.07457818202724    9.78615730556724    2.80649777400474
C        -0.37481909095884    6.99375152175206    3.17419755422457
H        -0.03947015538338    7.37268475315885    4.13859341974518
H        -0.10383882950826    5.94042977125154    3.10621390541741
H        -1.45800604536104    7.06854511829812    3.14170749539081
Cl        0.01116588942665    3.53708853578141    1.73814969129841
O         3.97096879147404    4.24959589339802   -1.16376480180037
O         4.69397745893612    8.45396454310061   -3.36369275847391
O         0.87930790049496    7.82905788502796   -0.59708372046237
P         2.93043383545436    3.38752137612686   -0.24028661120730
P         0.11743559079092    6.82380416646799    0.44366213060250
Pt        1.31906424528843    4.89390802368634    0.32041094430398
H         5.47215741374277    7.98248997548752   -3.68393910551892

