37
CSD_code = NOLGUR | q = 0 | S = 0 | Stoichiometry = C14H16Cl2N4Pd | MND = 4
Pd        7.99208460158591    4.54894812030488   12.08606858402290
Cl        8.09337934545272    2.68925124292767   13.27270942621190
Cl        9.47597558345152    5.51249675656692   13.40625362713738
N         6.58521370641964    3.74421780736999   10.78289700192554
N         5.60433548429360    3.48365963355808    8.80429836596760
N         7.92701666955543    6.23830781841329   10.89951731542019
N         7.75625887398947    6.14145452717178    9.58011573231158
C         6.65326102894925    4.00618500813288    9.49739230283519
C         5.45037619520910    2.99966355847595   10.97818070749905
C         4.90258730151657    2.47309840477895   12.14319407317006
H         5.40236608472623    2.62276343119394   13.08868552890505
C         3.73505480242037    1.75324627646129   12.01460962495402
H         3.27780797536306    1.32214450365191   12.89146720159919
C         3.12272119988878    1.56247125065652   10.77211728913306
H         2.21010284107755    0.98816529911979   10.72095353044458
C         3.65068754352834    2.08588182495986    9.60968067140261
H         3.16796703771669    1.93006782086907    8.65716276716670
C         4.82616864323265    2.81467604671060    9.72662084034898
C         5.39613927988786    3.48501951222459    7.37970242969404
H         5.72545205738402    4.44170523939657    6.96385293421628
H         4.32230262101499    3.39361446411417    7.19927958466998
C         6.13627455509074    2.32810783733078    6.70068566952239
H         7.20674350488734    2.41814350222578    6.89836188744757
H         5.79676340895823    1.38776060766326    7.13875326897939
C         5.88573149928798    2.31935586565030    5.19887590015333
H         4.82503946091241    2.20677628508977    4.98754744470860
H         6.41647503075131    1.49307036485625    4.73475161520750
H         6.22979066839086    3.24582097602063    4.74421753060319
C         7.76423956616567    4.84515945303351    8.94046153525543
H         8.72354469667607    4.35083595401044    9.17949915579681
H         7.68177250208995    4.97869186614568    7.86145189952805
C         7.88893786469587    7.52250149371150   11.20785214767830
H         8.02299646995366    7.84243842266226   12.22405566191738
C         7.68435923413006    8.28059464279962   10.04913388864741
H         7.61111263521090    9.34515041457904    9.97354584597904
C         7.60246605675521    7.36271463307203    9.02826763784169
H         7.45889396937841    7.49573913410166    7.97487937169353

