71
CSD_code = NOLGEB | q = 0 | S = 0 | Stoichiometry = C32H32Cl2NO2PRu | MND = 9
Ru        5.65476859679455    3.26393801866486    3.79694793131826
Cl        6.78341128483977    5.04463569240565    2.74076147425293
Cl        4.69965082195661    4.84053218078853    5.26642458791195
P         3.97024941257283    3.94343740616360    2.47497388079087
O         3.79727293660042    5.54607910290501    2.36942959523063
O         2.49057672994331    3.43997061183936    2.88281347111587
N         3.97230148970380    3.27745392432891    0.93169449845477
C         5.18634158594834    1.04041428660781    3.58466444011787
C         5.13632605526895    1.36551293982924    4.95554755124257
H         4.27347844355027    1.08824799016616    5.54991194908793
C         6.24452084780311    1.97398852717793    5.58641924150321
H         6.19397268209697    2.17411084716445    6.65211405364434
C         7.43259198738358    2.25986043310129    4.88907644530980
C         7.46339369587774    1.95399887397682    3.50224783743807
H         8.36533691117230    2.13873935031629    2.93064014901144
C         6.37879096763461    1.32406186636748    2.86637429353324
H         6.46665433255825    1.00523180370202    1.83400089403628
C         4.05715392364153    0.32690288458361    2.90471056573665
H         4.38368585333065   -0.66091290478922    2.57812761601357
H         3.73285677046007    0.88696989265944    2.02794903331001
H         3.20710975491770    0.21047279854117    3.57251817547052
C         8.59823594295699    2.86993804851633    5.63642179571318
H         8.66778892718930    2.35496554851597    6.60511415895435
C         8.31061827861029    4.35392951918839    5.89390652158315
H         8.22554018966268    4.88425609729669    4.94627859085149
H         9.11697803175719    4.79945753894071    6.47166927391526
H         7.37766010882155    4.48481874589287    6.43918432416969
C         9.93265979529292    2.71434260849908    4.90990049014625
H        10.12021332089483    1.67470031999778    4.64483639877204
H        10.73748756687297    3.05063950491398    5.55929429746021
H         9.95262043514653    3.32557175863895    4.01032643659508
C         2.79775041058741    3.32074503690116    0.08060154756087
H         2.76299435551129    4.22997304807592   -0.53002430132525
H         1.89923597134751    3.27112151923997    0.68979135545603
H         2.81798629320707    2.45635842304919   -0.58787674882629
C         5.21033933956281    3.34962231301059    0.17994592904269
H         5.34320574056943    2.42924903708885   -0.39520657860920
H         6.04763293098597    3.48012932727023    0.86641345011384
H         5.20859095016384    4.19522270724826   -0.51502963982776
C         2.62897757273862    6.12144207040933    1.90204456701033
C         2.70986444200015    6.85157191591269    0.70369646666654
H         3.67364148440530    6.92696460336782    0.22340519312103
C         1.59798855323285    7.45472947890288    0.19386601061096
H         1.65645893846069    8.03262129769472   -0.71664978061273
C         0.34719483115010    7.31003187328574    0.83163472843354
C        -0.82590300732057    7.86837098352895    0.28318442592373
H        -0.74615490242028    8.43691086155619   -0.63230095484593
C        -2.03815784156689    7.68755888754087    0.88724844880496
H        -2.93214103913284    8.11795847017448    0.46089271383039
C        -2.12838191175727    6.92463998238693    2.06042438090021
H        -3.09424056193673    6.76430381352676    2.51624095209185
C        -1.00773105533860    6.38187725337815    2.62532529859478
H        -1.08902031725521    5.78686498636176    3.52192051978248
C         0.26404345038952    6.57609901739307    2.04457929450512
C         1.44965460939390    6.02295591669059    2.60886311608162
C         1.43100691489470    5.32878795003876    3.91083945330000
C         1.92377884625638    4.04648816980311    4.00175632849369
C         1.83940376302780    3.30363102373020    5.18691332370359
H         2.21362090040713    2.29207564806738    5.18129368215466
C         1.29617222607903    3.86578636175314    6.30434366759442
H         1.22242516317803    3.30096364010801    7.22172545194644
C         0.86538143943522    5.20846869889111    6.29342016411150
C         0.37655117976959    5.83159072828895    7.46012947499423
H         0.31443657554100    5.24883168235041    8.36792794975084
C         0.00792913198594    7.14712053159214    7.45100002392575
H        -0.35957246200439    7.61907189333136    8.35025816298151
C         0.12610534232569    7.89973718727561    6.27367669814268
H        -0.13820530104822    8.94686559428590    6.28438388059930
C         0.58069260266878    7.32137042731226    5.12135030542470
H         0.68574708484530    7.91356544753302    4.22545425329371
C         0.94164967438308    5.95775597474325    5.09005681239581

