34
CSD_code = NOLGED | q = 0 | S = 0 | Stoichiometry = C14H9AgN2O8 | MND = 4
C         1.86238195784698    4.40904439481644    8.84318352870871
C         3.35884028083650    4.40628784213325    9.26554479956747
C         4.11909006032122    3.26869209540555    9.00821264704963
H         3.63523975601794    2.43891038750763    8.51637760417960
C         5.44477740375193    3.24433505760714    9.38627184574005
H         6.07943978802703    2.38708061567835    9.21656746721342
C         5.97542012819309    4.37515526819388   10.01096754744804
C         7.39699780030801    4.37559073182500   10.42952120525183
C         5.14596725875831    5.47277464398223   10.22022161607132
H         5.53102542245480    6.36519314530430   10.69532987634431
C         1.36411237506048    9.55446419793195   11.81556590778653
C         0.76482653391299    9.85852679344475   10.50945107268179
C        -0.21774468501837   10.83790067897850   10.35787423183571
H        -0.54000357102490   11.40435810543958   11.21661394927246
C        -0.75459555988226   11.05200645117270    9.10559478535714
H        -1.50830477940411   11.80453411491455    8.93640810526299
C        -0.29491016263226   10.26630599462527    8.04373687810495
C        -0.79523141398313   10.43698343694681    6.65678572258962
C         0.67793492234809    9.29945850957127    8.29278716227470
H         1.03989628167954    8.67952193269931    7.48278129899611
Ag        2.14114422284721    7.06936207061655   10.22411931807579
N         3.86962137547295    5.48869198909320    9.85875963610862
N         1.20746380606747    9.09971795428751    9.48771269139980
O         8.15286420232070    3.45243251148757   10.26984703314427
O         7.77528979239928    5.52052402956515   11.01621641274320
H         8.71042882662606    5.46492651113193   11.26920816878588
O         1.17395564591076    5.39465106228784    9.22598012659395
O         1.48179148071577    3.45841451012139    8.18593979361945
O         1.96281117417895    8.51910591396019   12.05746990273351
O         1.19322129792298   10.49501055315328   12.74293437686337
H         1.59257802159263   10.21481233841017   13.58278309045967
O        -0.28424891038020    9.94312251965602    5.68672902188891
O        -1.88628836205150   11.21003042550876    6.59211257813840
H        -2.18669237158276   11.28387321270620    5.67239059770770

