77
CSD_code = NOLHUS | q = 0 | S = 0 | Stoichiometry = C26H34N14P2Pt | MND = 4
C        -0.43209703561435    7.35431951919360    3.97139542629815
H        -0.56332004705240    6.85519006238096    4.93492848633369
H         0.55288921946305    7.83570651171717    3.96011203883045
C        -2.32569653960622    5.74385333945870    2.68073168723518
H        -2.60515446223265    5.13960047724637    1.81165863020905
H        -2.54297467124626    5.18242533820687    3.59625201684012
C        -0.50892217528648    7.30823902726030    1.20129160767056
H         0.47408489379717    7.78936170170754    1.14103546158195
H        -0.70963742623548    6.79393719578146    0.25897246646584
C        -2.85551359197520    7.74873319334492    1.47075643887675
H        -3.01440080764585    7.10724034102951    0.60082898177565
H        -3.57764792964673    8.57132379380429    1.45025714339371
C        -2.78879420419524    7.79841395190791    3.84026332491674
H        -3.50927062581641    8.62236683411163    3.86635561347687
H        -2.90349401011549    7.19505620266470    4.74407364919037
C        -1.28092047820859    9.12027723401737    2.58717707561631
H        -1.99417661646680    9.95082788024665    2.58948790284617
H        -0.26529716732074    9.52424649541683    2.55063744468640
C         1.58063102614786    0.70473472713364    3.78716204351924
H         1.24478013086281    0.85696014793868    4.81604585444471
H         0.74207536161504    0.33149791934593    3.18741143270593
C         3.76864184444649    2.49031874678148    4.00748473079319
H         4.36344940585292    3.28972874724091    3.55109873928974
H         3.55506122439818    2.75051569935841    5.04708242166497
C         2.90065201864140    1.61441634073212    1.51966821455404
H         2.09591207036059    1.27914416026665    0.85635557643503
H         3.45169277330350    2.40118573743991    0.99474858913698
C         3.78535334902686    0.15522775312326    4.56676023519283
H         3.43841594827168    0.45687444383126    5.55759679558825
H         4.46813694135478   -0.69490495726519    4.66431484593730
C         3.08583208844276   -0.59620319830419    2.42998998840537
H         2.21988919270606   -0.87571986758815    1.82367250203340
H         3.76777974012598   -1.45041947962114    2.49137944152030
C         4.90980003246795    0.89404505417433    2.61443903288568
H         5.41938655827879    1.74143269566633    2.14809941742542
H         5.60380783494506    0.04949151604705    2.67493578140358
C         0.87027857867724    3.86903756090792   -1.20948684721069
C         1.31426288449286    3.53190988873130   -2.54521648156618
C         0.46793720962780    3.73696125419559   -3.63221351947337
H        -0.51456144781802    4.14789924527897   -3.45724581925776
C         0.89306641285661    3.41485625829274   -4.90655368450402
H         0.23644140211345    3.57545550099215   -5.74936572127346
C         2.15903037562269    2.88711110350056   -5.10627003060755
H         2.48874010426210    2.63696443193519   -6.10423774274707
C         3.00201091240819    2.67960743427703   -4.02596299335122
H         3.98811611189690    2.26648667488395   -4.18235599432592
C         2.58512407445820    2.99943679758748   -2.74826990603075
H         3.23013254124846    2.84266929118442   -1.89699751616246
C        -0.23458007628372    4.10016704977498    6.62170111512979
C        -1.02907325058513    4.43426958151149    7.78472462221395
C        -0.78071908300218    3.80334996638517    9.00134304147342
H         0.00708896357785    3.06782120199428    9.05485048324213
C        -1.53753273130746    4.12501581515542   10.11137648615678
H        -1.34364444160745    3.63533631765836   11.05456192688508
C        -2.54344711763915    5.07401520400350   10.01856822201516
H        -3.13322939354399    5.32340974114785   10.88852692813101
C        -2.79328058114223    5.70349661962761    8.80953093798107
H        -3.57746683951543    6.44316346773598    8.73689136514587
C        -2.04092711909837    5.38696822163651    7.69517829325564
H        -2.22698432582506    5.86995614754862    6.74738806407915
N         0.83806195212845    4.17055033741494    0.85025610415019
N        -0.34492437385523    4.50346258950099    0.38886355150177
N        -0.35311517506094    4.32612223491503   -0.90038283320966
N         1.62701468574084    3.76507154177740   -0.10594001592388
N         0.54195804495387    4.07548104915810    4.68777230010315
N         1.20510989403696    3.19001068978247    5.38180726784331
N         0.74567849401350    3.18479654043535    6.59965537175332
N        -0.37310040413831    4.66573728696023    5.41281056396750
N        -1.45246101815145    8.37056955880595    3.81911386509754
N        -3.08670222795156    6.97516255050508    2.67991698579230
N        -1.52069481560222    8.32124364068417    1.39890175469241
N         2.64296469884107   -0.27478416873520    3.77632553546646
N         4.52077320807142    1.25693324312372    3.96691443854733
N         3.78732148326133    0.49807631440631    1.78206629493137
P        -0.50495342978134    6.07805885836688    2.60811412683812
P         2.16372795127512    2.32762172180252    3.07818580061775
Pt        0.80650400260909    4.18187594939128    2.78729261940591

