43
CSD_code = NOLHAY | q = 0 | S = 0 | Stoichiometry = C16H20Cl2N4Pd | MND = 4
Pd        1.74594270109990   12.49909676595832    0.79815262044697
Cl        0.84031212299803   13.16436199379448   -1.10812679050641
Cl        3.75940532327095   12.52167893267780   -0.11936395722999
N         2.53567606231893   12.06541172075310    2.66463979721638
N         2.67555693545698   12.37204769455282    4.86128641759503
N        -0.08043135523200   12.48494838058274    1.78015981213779
N        -0.18004370902053   13.08180706180402    2.97673435650477
C         2.08012214408066   12.74254081210213    3.69384605593008
C         3.49932674346761   11.21617574030879    3.13874203751059
C         4.29436651965268   10.29067280983113    2.47212486378102
H         4.20226398954869   10.17396671565384    1.40275229898757
C         5.19523341529541    9.57854430338915    3.23312236495404
H         5.83839793629207    8.85468628269813    2.75736356262850
C         5.30337477805371    9.77176152868254    4.61373279263660
H         6.02595465048582    9.19195657136796    5.16790419642255
C         4.51775404459302   10.68395970449198    5.28842051372226
H         4.61578844540285   10.82549223395897    6.35385978554036
C         3.60695699226347   11.40831639000563    4.53226243413831
C         2.49826503161005   12.95337567306274    6.16604193999645
H         2.74344490745777   12.19023423111456    6.90898731535343
H         1.44815336829175   13.22886919144972    6.30136188617964
C         3.39488325932472   14.17945905480510    6.36513559639549
H         3.15946315770048   14.92588087968231    5.60329289011358
H         4.43552056863185   13.88123446359895    6.22577330707605
C         3.20877044642074   14.77802135483081    7.75260234403709
H         2.17897353111976   15.09583195884337    7.90132831466220
H         3.85467113839761   15.64217989696772    7.87842857795214
H         3.45742167960247   14.04990191900711    8.52109857231761
C         0.97977745274827   13.74893675292184    3.52359044929410
H         0.71468064015284   14.23923501926947    4.45951328788707
H         1.31564450164300   14.50575075618232    2.78874711627086
C        -1.39522086745538   12.85022856363178    3.52948876911683
C        -2.09161584850884   12.07747324854510    2.62482697642288
H        -3.09259439112004   11.71280588910660    2.72860716640313
C        -1.22387732044597   11.86445586783826    1.54020971471765
C        -1.79962208765902   13.37772160425968    4.85799326300431
H        -1.18044400267029   12.95859904034914    5.65232290641989
H        -2.83274855543297   13.10540619489976    5.05220826697246
H        -1.71829332016783   14.46419496949279    4.88936074964175
C        -1.42677772767847   11.07649441439262    0.30014956600022
H        -0.44948539125496   10.82503339820854   -0.12573484845058
H        -1.96824251291529   11.66844283367291   -0.43643074574666
H        -1.99130539781898   10.17030718125366    0.50738345554756

