51
CSD_code = NOLHOM | q = 0 | S = 0 | Stoichiometry = C12H24N12P2Pt | MND = 4
C        19.99327273975611    6.03929761889825   11.25272851045647
H        20.60609661968290    5.52725531270908   10.50385896760740
H        19.77404707542955    7.04985422194212   10.88668033526393
C        19.07731788584709    3.66262342377272   12.42409781485622
H        18.24629724085224    3.07997054095821   12.84052222006879
H        19.63930650615614    3.01944198965286   11.73878362271422
C        17.82986469774616    6.08429031277698   12.99107501542013
H        17.54957274082140    7.09882212097251   12.68311696451068
H        16.95002920063158    5.59890438196298   13.43050887060228
C        21.10146833595588    4.81804217714732   12.99816097169020
H        21.58327773566010    4.24102652381397   12.20550526230214
H        21.80426949228258    4.95485343385884   13.82543573760720
C        19.26091021004779    4.87043803250344   14.49262073110377
H        19.93462770115631    5.02063314203559   15.34158163190254
H        18.37446668517412    4.32794016044749   14.83360665520323
C        20.03754372255624    6.87438007480221   13.50611822987195
H        20.71652956337395    7.03177696520603   14.34953718594314
H        19.73804983799228    7.84645031058873   13.10415791492943
C        14.17377288005347    4.85633658911152   11.76521190462490
H        14.00461851847428    3.79248590683356   11.56171985205978
H        14.78513641564630    4.93805540922866   12.67120062096168
C        14.88834426204153    7.38944404434749   10.83161956745493
H        15.53260556812791    7.60251217100458   11.69143309760426
H        15.19953398896367    8.03284426126265   10.00054754071647
C        13.65925402064454    5.56658356185765    9.12512200201765
H        13.93233020216128    6.13433881033932    8.22912766846452
H        13.48094176718279    4.52935250844110    8.82268769233842
C        13.05804529326102    6.91206495972167   12.31327548493666
H        13.76324006741123    7.01972671325750   13.14228375465833
H        12.08354133991157    7.30144308583433   12.62315741778404
C        12.61266483471681    7.51289176695130   10.06695834709510
H        11.63361737441951    7.90792641598764   10.35502057356940
H        12.98361524212489    8.07272574446728    9.20477577391025
C        12.00839441001813    5.36699680364277   10.85843659065735
H        11.92531267708993    4.31040782465246   10.59214051138595
H        11.02280052795641    5.73980204355089   11.15362080850376
N        18.61263359501424    3.76330876847166    8.80381578441863
N        19.69492507653080    3.51668584952511    9.17774923377206
N        20.76165259559562    3.23022314012136    9.44041260259972
N        16.05010947311389    4.22146898669523    8.01333065824071
N        16.36878968466254    3.64449480195054    7.03670839537225
N        16.48762891584627    3.12235173379259    6.04183275178405
N        20.74763041184139    6.13150587593659   12.48305310609455
N        19.95422924292949    4.07554678308249   13.49712855099816
N        18.85813227972912    6.18118306634802   14.00396669349847
N        12.89993513000149    5.50126244875362   12.00124486742924
N        13.52176048543944    7.70536060608793   11.18698478072520
N        12.44934698164731    6.11862830195894    9.69715391557482
P        18.38452130793157    5.12042879030392   11.48628453974174
P        15.08508803387578    5.60344474866894   10.31685868035677
Pt       17.07179940441774    4.67586673380821    9.64283958869273

