64
CSD_code = NOLJIH | q = 1 | S = 0 | Stoichiometry = C28H34OsP(1+) | MND = 10
H         4.46514281747437   25.51683852243595    5.22607868601417
H         4.35293470655103   23.79603434582186    6.72156572441960
H         3.78227558106819   22.72545926895787    5.62852788215366
H         5.68562773157416   24.65778511382647    6.08937520653589
C         4.92583805908304   23.51052785346596    2.92115394561112
C         4.96021304475966   22.27778036201923    3.65440166869861
C         6.10464504280581   22.30857898790533    4.52901328117982
C         6.77559581990058   23.55035421339456    4.32336527922413
C         6.01981246008386   24.30920736010584    3.35651934950880
C         4.10484316162947   23.77370824695620    1.69919758741974
H         4.71642328787064   23.57708659947409    0.81610276194636
H         3.76788667018820   24.80850013935052    1.64779096008744
H         3.23470394666166   23.12280295041825    1.65759314806884
C         4.19818590545528   21.04334740859866    3.29337041055680
H         4.12407525730192   20.35653476409932    4.13360674931100
H         4.72590733830970   20.53214996545576    2.48545780164962
H         3.19191817976267   21.27104484362446    2.94713987772950
C         6.66371366013733   21.13997427009292    5.27289002792924
H         5.88043870381987   20.45645324424432    5.59171705799595
H         7.21802582189067   21.45991422464335    6.15243355504397
H         7.34807401406751   20.59253992675108    4.62174052459042
C         8.15601811624275   23.88186746542245    4.78323539485587
H         8.31319721270647   24.95602204270600    4.84680898000284
H         8.86840022652691   23.47904225267688    4.05996011408254
H         8.37463052955681   23.43780333334103    5.75154298703531
C         6.52448251858535   25.54289892998352    2.67855025142020
H         5.74187313890069   26.03241673489196    2.10368479708675
H         7.32491425412320   25.26546109145920    1.98985476099777
H         6.93325025796459   26.25655225367376    3.39191990273000
P         2.28550478668757   24.52206693865742    4.80838503600579
C         1.84772699344981   25.99034077317225    3.81914410457331
C         2.80498415612120   26.85232627648259    3.30132711354392
H         3.85399092068336   26.66529419391474    3.48403440121866
C         2.41946636616863   27.96304769915686    2.57036228694933
H         3.16882718644874   28.62892998218484    2.16978787245042
C         1.07595031700983   28.22216442964976    2.35964152942041
H         0.77603090498587   29.08799958694015    1.79021503846071
C         0.11549572849077   27.37359224875928    2.88942531335238
H        -0.93260474217180   27.58031056893016    2.73667845827682
C         0.49487061755064   26.26250153258060    3.61773497430392
H        -0.25552951860099   25.60664131137947    4.03539124074512
C         1.40072584563860   24.86572713329434    6.36502814792149
C         0.07323365715020   24.49213903093367    6.55498325896309
H        -0.45005730939545   23.91814731650942    5.80326327434693
C        -0.57948293949395   24.84175921705389    7.72399991895270
H        -1.60676624611785   24.54443365773905    7.86984608059235
C         0.07951940711622   25.56862942281722    8.70134419137096
H        -0.43473076983886   25.83827859015486    9.61067074414005
C         1.39974658122179   25.94641630512307    8.51193711709040
H         1.91470624239932   26.51188852495229    9.27297654621640
C         2.06182049289908   25.59829105267407    7.34903839646002
H         3.09628767631886   25.88525417306248    7.19728133279051
C         1.33302167453328   23.17041925822297    4.05318540914181
C         0.85363226717752   23.23072166771439    2.74841826894731
H         1.00173264270267   24.12136182293772    2.15407922999572
C         0.16703911806045   22.15121423601757    2.21697239097738
H        -0.20716305552769   22.20291485928196    1.20579363516283
C        -0.04032394193942   21.01191453480794    2.97712433046137
H        -0.57610698050850   20.17453313551986    2.55804486232153
C         0.43922306751190   20.94767864050651    4.27762937020869
H         0.27445448710411   20.06240717992273    4.87242291280974
C         1.12919667849347   22.01845022686788    4.81284975568038
H         1.50711147221154   21.97745994045713    5.82666645225994
Os        4.62511875038273   23.95675781580986    5.17391833002256

