93
CSD_code = NOLKAA | q = 0 | S = 0 | Stoichiometry = C30H54N4Si4Zr | MND = 6
Zr        4.76853742717085    2.43262443914181   24.91028525836757
Si        3.13488774501517    3.15749534723967   21.73701350762534
Si        2.48173033031960    4.31163659597800   27.11463078717724
Si        2.27456924525787   -0.36008454591553   25.52466948494115
Si        7.09315709758536    0.22125335268533   23.04857022897130
N         3.31792914419983    3.29993042713342   23.43072325372818
N         3.08561013926811    3.71818746425684   25.61635822515124
N         3.64537284927648    0.44347927890227   24.85997274721816
N         5.60402949790296    0.72644146162554   23.76785383243017
C         6.06758888675355    4.25701599871860   24.80067288095694
C         7.13297146189175    4.08742084841251   25.90367045752456
C         6.55185224452649    3.34510546994540   27.12002579692361
C         6.02214817154128    1.96222860813764   26.69263521653534
C         4.96864786519585    3.11595367886838   21.18507654513331
C         2.29406591677395    1.46443642685543   21.40163469491096
C         2.20204611880572    4.53651297010343   20.79246673335670
C         0.59646933857633    4.64381449735987   27.22252053179848
C         3.36411651041822    5.93554020597643   27.62947081690811
C         2.92913573722470    2.86004113923109   28.28307492645553
C         2.66911447943387    3.92375556363152   24.38351701216207
C         1.53514983420436    4.83216802071024   24.08171845264949
C         0.30934349925649    4.32493180155304   23.67061949796908
C        -0.74077293582544    5.18319870346215   23.39719356748323
C        -0.56882566989971    6.55238095545216   23.51487379927539
C         0.65648446118064    7.06250185979841   23.91118458725590
C         1.70402058330051    6.20629135636647   24.19987803688208
C         0.90696323739744    0.97353931427395   25.58045653828320
C         1.54225893060785   -1.84376737953965   24.55431150890245
C         2.72230155870880   -0.96747936310076   27.29174402676178
C         8.13344909016925    1.82415851633645   23.04273444059523
C         6.92869702974259   -0.43028470043516   21.25162289931331
C         8.02417262308378   -1.11803586324357   24.05678444520801
C         4.62752810431147   -0.07306071700494   24.15602527386371
C         4.64649686014997   -1.52052442400809   23.82813736699121
C         4.28898615741373   -1.97286452341402   22.56482416486908
C         4.29722429664386   -3.32824426950386   22.28465542006289
C         4.66970773978071   -4.23848197048503   23.25928078397565
C         5.02928001826082   -3.79051390876752   24.52010948741390
C         5.01353977358456   -2.43730775066700   24.80632807668329
H         6.56732424480187    4.57661706237556   23.86839715652550
H         5.41950568193770    5.10805140760494   25.09511730477482
H         7.97713110311341    3.50018642914839   25.51793960511120
H         7.54075397185112    5.05756079411849   26.23582098222559
H         7.33354177551381    3.26913110451977   27.89677096180559
H         5.72545980408879    3.93669262006530   27.54077582424313
H         6.89805304556738    1.35127809059011   26.39108980299600
H         5.59034981883234    1.46350626585795   27.57871994331387
H         5.52073953369853    2.43982026348718   21.84055912870405
H         5.42593457847712    4.09979136737344   21.26087117849712
H         5.09075113864732    2.77937765794114   20.16040744921597
H         2.58471423363383    0.75464915694140   22.17373480116652
H         2.58048943968200    1.05534717206942   20.43796253484341
H         1.21055518802578    1.53929033436143   21.41300610249029
H         2.34529184421569    4.44097964812724   19.72123602770271
H         1.13500097924948    4.50749006696850   20.98773902463794
H         2.55752076466787    5.51896534012169   21.08709507708181
H         0.01859768942512    3.79594323396307   26.86839456813549
H         0.30561425422468    5.50535784275589   26.62996599834427
H         0.30067367357729    4.83690823236090   28.24879474672406
H         2.89994373078850    6.80206760977324   27.16805574715754
H         4.41107120177505    5.92676683374760   27.34059582177261
H         3.31833750099181    6.07784034244095   28.70425291119186
H         3.64736687746671    3.15490492629268   29.04112769641855
H         3.36676087508162    2.05223951400003   27.69029247354958
H         2.05853991249465    2.47032510570747   28.80056067904539
H         0.18514339734498    3.25682379312858   23.57445735538156
H        -1.69639948993876    4.78463689947228   23.08847401028570
H        -1.38824453698175    7.22133657009352   23.29667535372940
H         0.79359287687930    8.13061371708642   23.99763239009172
H         2.66262416544654    6.59323102347524   24.51268651805250
H         0.20898020104605    0.78779514047114   26.38997516765246
H         1.33894102739176    1.95893325919952   25.72642116877408
H         0.33409188656343    0.98836462868100   24.65783511945172
H         1.42984242135805   -1.61432730451002   23.49861900088908
H         2.16364988472820   -2.73012186558304   24.62896070557989
H         0.55957098911619   -2.09847409077829   24.93942010955973
H         3.00510757574084   -2.01604701279645   27.28766849799078
H         1.88496253196493   -0.86048900540019   27.97320154447563
H         3.55657963572868   -0.40158513778141   27.70050659046291
H         8.94259674428954    1.77041989749427   23.76394280861973
H         7.50809712323236    2.67890269581058   23.29913037318153
H         8.58372270317947    2.00490667802821   22.07235312253978
H         6.23959410616652    0.17001792708022   20.66558890875140
H         7.89140406686019   -0.40658901620559   20.75136621107868
H         6.57565032193176   -1.45637953382093   21.23113211592155
H         8.00066106580937   -0.89314858720401   25.11926113578718
H         9.06509179481549   -1.17676118582716   23.75525537076357
H         7.58629775251360   -2.10161600398440   23.91843226604576
H         3.99819238824436   -1.25994499109999   21.80788421814686
H         4.01224734587211   -3.67633386075052   21.30244323132417
H         4.67785451070654   -5.29560310610825   23.03799022727187
H         5.32037549961631   -4.49921117247998   25.28181299375873
H         5.28916374945264   -2.07773366444616   25.78656462397225

