40
CSD_code = NOLMIK | q = 0 | S = 0 | Stoichiometry = C17H19NO2W | MND = 9
W         8.21797466221757    1.65193679081077    1.83622284673119
C        10.36605031492970    2.48560633105655    2.06787143831152
C        10.12663113204277    2.40996198833859    0.65030122015193
C         9.03239542278741    3.29612031357589    0.35418411268781
C         8.63773907488941    3.93164714298601    1.58391010394313
C         9.51799808338399    3.49887210492225    2.59160641123876
C        10.74807282230582    1.69310212564994   -0.38697848685466
C        10.30016692114492    1.86745298073182   -1.67318705706763
C         9.24136622373978    2.74284090276204   -1.96586573048586
C         8.61012842665093    3.45688134043385   -0.97864772257297
C         7.06885045098072    1.35187954966718    3.38412124772566
C         8.66047459255353   -0.09571986290591    2.60468756081111
C         7.04487582896675    0.54536617479570    0.49104345050456
C         5.05548447101612    2.05226663694675    0.27277852171192
C         4.92144153417546    3.46934504269647    0.83651933279912
C         4.08889110916944    1.11007129695150    1.00090265566325
C         4.79198418537950    2.06064880748129   -1.23751894385086
C         6.73785331388537   -0.77123767758886   -0.12364717098009
N         6.41668277496600    1.62863124765555    0.53419248149252
O         6.46005162035790    1.15943273779937    4.35085712056226
O         8.84391007337906   -1.12093464237608    3.10213075248866
H        11.23093612654599    2.07440761156899    2.57581775418199
H         7.96087727388909    4.77166128134649    1.66272360493101
H         9.56993573739866    3.89550238569665    3.59802001656033
H        11.58179853472815    1.03883689609311   -0.17015818239212
H        10.77334857187626    1.33252868503324   -2.48340848013178
H         8.93034905736244    2.85999369519718   -2.99406278349835
H         7.81409781820550    4.15131532443392   -1.21693251248941
H         5.18772660634462    3.46661971026431    1.89245442032638
H         3.90155274120586    3.82979726235801    0.73078954266238
H         5.58632472213296    4.14888017258770    0.30850669381926
H         3.07365949687703    1.49247254143870    0.93420695913531
H         4.37108698664498    1.03753200656552    2.05016976793205
H         4.11442438976224    0.11382702932292    0.56815203249514
H         5.53739262226967    2.66753096392274   -1.74648496050596
H         3.80734833818587    2.47679645040340   -1.43539905252078
H         4.82926772818026    1.05577541985951   -1.64935404089571
H         7.64113763501265   -1.19694461205520   -0.55743511863042
H         5.96303419572794   -0.71250806841243   -0.88739342783935
H         6.41267837872826   -1.44079608802092    0.67420362185525

