72
CSD_code = NOLNUZ | q = 0 | S = 0 | Stoichiometry = C25H27F6N3O8S2Zn | MND = 6
C         7.50882822717068   -0.87250352653263    7.22861321077881
C         9.19533950545074    2.35228046508064   -0.68558221409289
C        10.07407615662829    3.16139118436286    4.69698710230583
H        10.57405664988015    2.20582830310219    4.74375407077381
C        10.69450226587360    4.32955906400626    5.10468345818355
H        11.70379732948904    4.30756684767370    5.48252802180903
C         9.99169690653960    5.52179299032527    5.01147205653765
H        10.44195989772991    6.45521555165378    5.31442632512552
C         8.69779986125634    5.49317346764188    4.52248169702822
H         8.11734710175585    6.39932773993013    4.43708753672555
C         8.14692528862745    4.27382720637165    4.13943469302253
C         6.76319637816006    4.19367732117438    3.54944941299913
H         6.11934332111754    4.97561055996405    3.97586240636831
H         6.88944146519359    4.38615868180195    2.47994307251436
C         6.53568062568107   -0.93745189162227    2.29986130929391
H         7.44389661676366   -1.44629515896925    2.58219527390539
C         5.52153836692337   -1.61978831806977    1.65737957434410
H         5.64301939108358   -2.66339875975994    1.41807601708509
C         4.35957501732006   -0.93777304429350    1.33269230523905
H         3.54449348597218   -1.43735696840237    0.83096701998005
C         4.26592114245488    0.39995269373560    1.66493754390224
H         3.38154479430735    0.97165121758894    1.42898583420760
C         5.33577706670223    1.01389784265156    2.30349119874151
C         5.31002456549230    2.49127139942084    2.58717500408941
H         5.70029791311576    2.95291722304937    1.67424464338939
H         4.27721987833436    2.83252952517237    2.74210108988502
C         5.56128776135267    2.66080543128609    4.99146149427043
C         5.99194920796958    3.35822126857207    6.11221051888718
H         6.79554827141938    4.07332031793992    6.05260846069297
C         5.43156621609462    3.12984749947361    7.35822900277568
H         5.81415886499710    3.69345482741447    8.19429457516218
C         4.42052222041475    2.19559065286585    7.52953211021313
C         3.97650733361235    1.47701440414305    6.40318662862121
C         4.54743183749124    1.72578782327714    5.16401785459002
H         4.19022109283098    1.13297645373422    4.34063059788706
C         2.92259115703212    0.47741188943303    6.56015170465211
H         2.20573605710294    0.68797648123177    7.34262841322098
C         2.84239057283403   -0.63929638105144    5.84994818346494
H         3.59696358210155   -0.90488984357254    5.12919535432946
H         2.04930310945213   -1.35045548106200    6.01038215519081
C         4.33631708719578    2.38796865543506    9.93274591386986
H         5.43233744164530    2.43650014199566    9.87935383628684
C         3.93925263758745    1.37700568280653   11.00461122347090
H         2.85673012150281    1.29311657791972   11.04980215415796
H         4.31458312129297    1.69128170190175   11.97430345632971
H         4.35235252422036    0.40267491284381   10.75933763470414
C         3.75888627033287    3.77112119101197   10.23893496243804
H         3.99188291521206    4.47460576170570    9.44336892967699
H         4.16731778455533    4.14691521683902   11.17315145432519
H         2.67741358803077    3.70246234260190   10.32869455326263
F         8.76071907769124   -0.58414359042076    7.59372596340391
F         6.69767120292189   -0.05897047163899    7.90671223839340
F         7.25088735821934   -2.12058845118695    7.61855143224907
F         8.75748717111444    3.60558006991843   -0.84552529692666
F        10.43739390492991    2.42034992038703   -0.20159672662972
F         9.25618222361925    1.78576782370596   -1.88915347897355
N         8.83445267863713    3.14122729247243    4.22429949207148
N         6.44681285333224    0.35206693811800    2.61514013559830
N         6.16921968709330    2.86885560782636    3.70594710917848
O         9.56778201569892    0.31707314941913    3.23062829214998
O         7.63519833574018    0.80882811149154    5.29142634040977
O         8.33806988000748   -1.45338560017050    4.78715024247891
O         5.96638711457168   -0.97362454133129    5.07663058496023
O         8.19221886704292    2.35494702125101    1.67321156423898
O         6.78914492834048    1.44490144342600   -0.09185864200013
O         8.71829765450478    0.17104034719198    0.72400657323373
O         3.82375475202337    1.88576677782745    8.70606064931956
S         7.31664256353669   -0.61893918376582    5.37672342570358
S         8.07957925154819    1.44730074144441    0.52709093572262
Zn        7.88124727014448    1.49069960595961    3.48217488406391
H         9.38350863858116   -0.49282597484379    3.75365967356361
H         9.51279257541632    0.06699381712347    2.28396577118631

