64
CSD_code = NOLPIN | q = 0 | S = 0 | Stoichiometry = C18H39Cl3P3Rh | MND = 6
Rh       -1.92496894966681    8.76854831002326   10.67077871509719
Cl       -2.97753169331644    8.51997702121630   12.73322773208693
Cl       -3.66795043392766   10.22611183185792   10.05215336301574
Cl       -2.92084939271982    6.75576691032869    9.95257055444445
P        -0.94797553241176   10.71933648628102   11.31923059459416
P        -1.10385380623199    8.96971741637979    8.55616469789718
P        -0.29453912198910    7.31278612887216   11.30929098165915
C        -0.79128142944163   11.89830123701406    9.90930213927696
C         0.15659116905644   11.54595826767416    8.75500680377129
C         0.38299376741886   10.05978657633603    8.48805726162489
C        -0.39975058518122    7.42180553713054    7.86033476536198
C         0.76266159396865    6.83883625604611    8.65890301261430
C         0.34013890883804    6.20172705828381    9.97912147535846
C         1.28130598453299    8.10325721294773   11.88768491848319
C         1.08500677525324    9.35302528666091   12.75044180113754
C         0.79343428375288   10.62374078185614   11.94981614149870
C        -1.86784182731761   11.71890666762720   12.59921656202095
C        -1.55141629701303   11.23101165828221   14.01232329918932
C        -1.65578608184826   13.22831815465433   12.50836182644233
C        -2.20643451090165    9.59506028820341    7.19986371045138
C        -3.34810962804407    8.60561704876917    6.97958513617755
C        -1.49360413412801    9.90574233354174    5.88654415612534
C        -0.72282847441666    6.07369592740419   12.64072132009835
C        -0.59988267820412    6.67156324234197   14.04143626369836
C         0.07151336452250    4.77005967589821   12.57688276863843
H        -1.81910419485416   11.98536951057468    9.54093439756144
H        -0.48662982814713   12.86636447330295   10.31071004123853
H         1.13548021961161   11.99858358257155    8.94422234103545
H        -0.23777040847818   12.01881085750210    7.85240857901044
H         1.05168147268223    9.66014982592407    9.25517047256679
H         0.87231258428722    9.93067720523814    7.51789857544622
H        -1.21795034522872    6.69728478801299    7.82532587448035
H        -0.06847945309401    7.63705808011236    6.83998338211518
H         1.52976521800696    7.59800369621128    8.82779731742476
H         1.22542094761267    6.05295211111837    8.05233247492517
H         1.19819646660209    5.67000556192957   10.39999768428459
H        -0.46588983452785    5.48837936633718    9.78641717053591
H         1.82157485004199    7.34324966029208   12.45984685294130
H         1.89026850490594    8.34269613199767   11.01118580170919
H         0.26440134787875    9.17939937205590   13.44689265211401
H         1.99521190080414    9.51507164420647   13.33675555138139
H         1.48351652083590   10.70573384175016   11.10766424795406
H         0.94975966057110   11.50165387070101   12.58318083656923
H        -2.92085298163408   11.49591131710117   12.38913102770500
H        -1.73087982142915   10.16174957175630   14.09192092219436
H        -2.21389541546298   11.72886189194364   14.71799975437004
H        -0.52538817159533   11.45673157894321   14.29741038845893
H        -2.08517488789617   13.64289577471413   11.60035775741598
H        -0.59953788530520   13.49144820681806   12.56381568034599
H        -2.15753779259239   13.69844331775923   13.35257678460178
H        -2.63177919222853   10.52136123887472    7.60700672151177
H        -3.81273805331642    8.34454069273785    7.92807458105112
H        -2.99116595640737    7.69299843930268    6.50623187086773
H        -4.10903997903291    9.05102604705486    6.34189003380445
H        -0.71162074552907   10.65131906975185    6.00684817199053
H        -2.22314248627536   10.30073245286316    5.18138441430027
H        -1.06168094174897    9.01066643289820    5.44386516433787
H        -1.78116947335295    5.85448381994484   12.45261700882215
H        -1.19386397265156    7.57791822546398   14.12241830343781
H         0.43713313322096    6.88115564295396   14.29722488998184
H        -0.98782899109388    5.95891627461560   14.76708974015457
H        -0.13890753189505    4.20206126589616   11.67560736357511
H        -0.21452585155179    4.15286939020087   13.42702791557822
H         1.14389009768604    4.94960845293841   12.64705725144012

