35
CSD_code = NOLROV | q = 1 | S = 0 | Stoichiometry = C15H17ClNW(1+) | MND = 12
W         1.34773478988553   -0.97438923024609    8.15993804768040
Cl       -0.74647572394109   -2.03652936814115    7.69354814831231
N         1.51098892245328   -2.64559471046532    9.28339389380710
C         0.59966551627779    1.20868658100494    8.31505352988531
C        -0.14051949557060    0.54481059679690    9.30646264256707
C         0.76121524234826   -0.06687983717796   10.21486168399079
C         2.10436549003576    0.28699332104587    9.83343346482245
C         2.00329740583039    1.09830420854596    8.65308608531657
C         3.14174932665023    1.36905728149577    7.67064981111512
C         4.50972466725584    1.46670486685930    8.34481886699937
C         2.92314612611671    2.59894510656459    6.79028163208542
C         2.91978818387145    0.04081038248538    6.94890365318239
C         1.82822745386474   -0.20921133327353    6.03105866748473
C         1.71658860426651   -1.59777113476685    5.85509258518061
C         2.64664102489645   -2.24137904762841    6.71142490087200
C         3.42125610403896   -1.23170402573106    7.38604737021608
C         1.50119691565468   -3.63057295361991    9.89341549234094
C         1.47452362733966   -4.84240134958513   10.63549298549732
H         0.17067013587741    1.86589267376257    7.57163563187989
H        -1.21975764367199    0.53329391731600    9.39310519868531
H         0.47583047218966   -0.50726666182013   11.16538048649416
H         2.96637207279307    0.19194667699327   10.47785202629732
H         5.28767730121660    1.51891763457172    7.58748226155319
H         4.71403309865170    0.61597982820484    8.98803996355077
H         4.55746671403861    2.37085565354957    8.94620999809120
H         2.96971951515639    3.49774535226812    7.40011043618287
H         1.96452762623821    2.58389759889904    6.28089939995774
H         3.70648825165560    2.65407443765719    6.03846176206048
H         1.33143265042143    0.52537707522188    5.41280538929028
H         1.06160233963832   -2.09892898509951    5.15349104889888
H         2.89557010100302   -3.29735102004046    6.66951697383803
H         4.36151637505574   -1.41652689360458    7.88516702329988
H         2.08347389493582   -4.75814950063555   11.53637827107768
H         0.44658659342104   -5.08388827976252   10.91169072810216
H         1.86767632009738   -5.65004886164111   10.01660993938379

