35
CSD_code = NOLRIP | q = 1 | S = 0 | Stoichiometry = C15H17ClMoN(1+) | MND = 12
Mo       -1.32341353433944    1.00555982163316   -8.13217978252938
Cl        0.81993681543718    2.05678656659636   -7.64329002720767
N        -1.42640368008948    2.65746430960007   -9.20337953882367
C        -0.60146633162429   -1.18083261786109   -8.29071599901515
C         0.12277977516286   -0.53376600543260   -9.29972098153966
C        -0.79185368848894    0.06506549138838  -10.19466639870871
C        -2.11860312598967   -0.27858194246016   -9.78642611766507
C        -2.00462391371682   -1.07574699293244   -8.60581285239512
C        -3.12810984640386   -1.37285043446585   -7.62425627870343
C        -4.50263849002835   -1.48747035327681   -8.28081280574177
C        -2.88409973719234   -2.59678700954060   -6.74256996933387
C        -2.89476773816931   -0.04155355164070   -6.92618660556673
C        -1.80696269833779    0.22106874361716   -6.01691784980253
C        -1.71909365777943    1.60622056082775   -5.82886336298500
C        -2.66098225340417    2.23408732712459   -6.67413411580414
C        -3.41163114341351    1.22174120341680   -7.34962012158594
C        -1.43038766737663    3.63659500168708   -9.81475008457709
C        -1.41403714032113    4.84698435763448  -10.55954419412763
H        -0.16026231790264   -1.82400543397761   -7.54488142015965
H         1.19948712347730   -0.52620694464817   -9.40338089345665
H        -0.52572858150351    0.50086001883245  -11.15170448448018
H        -2.99393770038308   -0.16851916865753  -10.40651553640048
H        -5.27034503588763   -1.54510475657589   -7.51305988573203
H        -4.72620850580093   -0.64258783867979   -8.92543930766917
H        -4.54794228029766   -2.39507304981053   -8.87770509007659
H        -2.92499379614811   -3.49767589668396   -7.35012201621928
H        -1.92110497990686   -2.56901866440168   -6.24170237636965
H        -3.65990737371458   -2.66004398867546   -5.98335039520789
H        -1.29075146224668   -0.50680478449790   -5.40996515566202
H        -1.07089329653919    2.11168740414840   -5.12564319666847
H        -2.92600412705537    3.28508217518435   -6.63232030319963
H        -4.34337689095178    1.39590776487193   -7.86378424345371
H        -2.05978982310416    4.77119555111790  -11.43487213580352
H        -0.39366292265929    5.07005985896846  -10.87607678300628
H        -1.76811997329949    5.66206327756949   -9.92682969032339

