52
CSD_code = NOLREL | q = 0 | S = 0 | Stoichiometry = C25H24S2W | MND = 12
W        10.55461702714296    0.30265485642818   13.22705596604879
S        11.21153372465850    0.92283071228928   10.95570659092050
S        12.39781185362766    1.86611257312881   13.62691730862151
C         8.74928704142494   -1.30225329157364   15.01856691716459
C         7.61459670671076   -2.25541463232605   14.64052553300444
C         8.87208898103920   -1.25358705187521   16.54243164390778
C        10.06777713424139   -1.61399466646656   14.32364236241557
C        10.17865834334418   -2.00671816281126   12.94704089891157
C        11.51705794544896   -1.83756189803830   12.55256798377517
C        12.23813496221545   -1.28443139352684   13.63576154045566
C        11.35309798387850   -1.14417015805332   14.74828250534507
C         8.62702070597034    0.07661743677862   14.38367550662077
C         9.31056816413263    1.24572694600203   14.85204134812041
C         9.27926090068244    2.20121383123122   13.79062334024530
C         8.59421067789324    1.63377531573515   12.69350735769953
C         8.22475185502635    0.31699051682822   13.02657865366256
C         9.78954056781328    0.44134013060317   10.02401276550743
C         9.43386791760524   -0.88897894527095    9.83604615545365
C         8.30791220324050   -1.21215416483978    9.10078531785294
C         7.53514270388145   -0.21614427329272    8.52743140438449
C         7.91240781482298    1.10953604708367    8.67081944267780
C         9.03411859832076    1.43716258669836    9.40767241667319
C        12.51983285135582    1.86842653071089   15.39071891998445
C        11.81906054799846    2.80502676789027   16.14452462659554
C        11.92881656622050    2.81722170804838   17.52267426774350
C        12.75391567555692    1.90930288307753   18.16593769514864
C        13.49243640101717    1.00744255123004   17.41744140492063
C        13.38528568720721    0.99254146018569   16.03911649028560
H         7.46434368845009   -2.30882741521995   13.56626311241353
H         7.83738785053199   -3.25620341299713   15.00479513901023
H         6.68550776484193   -1.91945231798650   15.09625722584306
H         9.67735010745921   -0.59983895369290   16.86523463664003
H         9.06773271003231   -2.25218723318664   16.92731483728373
H         7.94229045489670   -0.89124987303095   16.97580939089470
H         9.41408165324609   -2.50397062198926   12.36993532220906
H        11.95606975259621   -2.12841748291647   11.60718050689924
H        13.31419703806620   -1.15975911952964   13.65646322769638
H        11.66508371642256   -0.94729614045274   15.76289291065943
H         9.58115844088113    1.46745077320127   15.87312223118875
H         9.57804864746911    3.24054529312451   13.85889250342355
H         8.33097545980411    2.15298218890083   11.78208145298395
H         7.60346509083928   -0.31844883266012   12.41313240082183
H        10.05285347302975   -1.66961932463288   10.24720960862572
H         8.03758739425197   -2.25023987308519    8.96620388236913
H         6.65450157437944   -0.47241542912949    7.95729306867808
H         7.33046735080550    1.89107682351973    8.20377362810392
H         9.34706658484777    2.46608265342657    9.51105389676733
H        11.19790162867255    3.52994842364690   15.64127903296981
H        11.37325248418492    3.54456345700430   18.09736599969962
H        12.83612437564621    1.91770267663933   19.24273319544348
H        14.16191381696508    0.31653244170689   17.90971206041556
H        13.98072739917469    0.30882708346348   15.45379436483362

