36
CSD_code = NOLSIQ | q = 0 | S = 0 | Stoichiometry = C15H19ClW | MND = 12
W         0.94031007463740    2.03676409014208    2.29772655528734
Cl       -1.38035690450312    2.03675938872449    1.62716499528343
C         2.55274471890173    2.03676434674178   -0.37388902165414
C         1.10368463003983    2.03676317941069    0.10154559715781
C         2.47155020871677    2.03676477035626    4.83856951563631
C         3.99511046046761    2.03676464488270    4.97318966189179
C         1.85110215275207    2.03676382938436    6.23608100317409
C         1.61399096297348    4.31757444767419    1.97796283458681
C         0.39488580943411    4.31574362913961    2.69552117887019
C         0.56927328732918    3.58305816288184    3.89782493040588
C         1.94002544528218    3.14183548437302    3.93686737962311
C         2.57221954996893    3.57112097590137    2.71038190314445
H         0.60088589533944    2.90897021435065   -0.34490450252545
H         1.80855636216298    4.89774316660786    1.08483069153662
H        -0.49274729517901    4.87393934113250    2.42134789541500
H        -0.14374962708147    3.55947163998904    4.70738096374771
H         3.63108158910604    3.55827470102397    2.49923273152085
H         3.08745912064920    2.91882370000193   -0.02727966219470
H         2.60304819189001    2.03676971244924   -1.46544260081759
H         4.48977110750263    2.03677031890710    4.00650113533788
H         4.31650652140906    2.92017785477537    5.52099905214516
H         0.76607345184788    2.03676724778958    6.19984567369500
H         2.17412836610878    1.15317133369254    6.78274482123484
H         3.08745744202010    1.15470068984985   -0.02728807508135
H         0.60088753704367    1.16455531572278   -0.34490462153792
C         1.61399421807138   -0.24404602235678    1.97796313208227
C         0.39488899096480   -0.24221611982320    2.69552094902015
C         0.56927512650806    0.49046914786226    3.89782465839082
H        -0.49274273453354   -0.80041463116751    2.42134859845250
C         1.94002659792331    0.93169368291706    3.93686728184778
H         4.31650701335157    1.15334526742542    5.52098908071475
H         2.17413381981455    2.92035176443984    6.78274874334293
C         2.57222173837746    0.50240885155233    2.71038212991806
H         1.80856039853519   -0.82421595711631    1.08483165146292
H         3.63108379968607    0.51525731317300    2.49923315313735
H        -0.14374802751836    0.51405451718911    4.70738058574737

