81
CSD_code = NOLWEQ | q = 1 | S = 0 | Stoichiometry = C42H35AuNP2(1+) | MND = 2
Au        5.64656218964880    2.18745574987830    4.76043474372692
P         4.68508002771350   -0.19680268648436    6.12960562947006
P         5.50445424422385    3.05726250918329    2.69236367900320
N         5.53120632303776    1.11141483483420    6.53156541576256
C         6.54115932027140    1.07520849182225    7.51070184094521
C         6.98634557900031    2.28154995625684    8.04482240083749
C         7.95159834366093    2.28784778813921    9.03237848595941
C         8.48858836486036    1.09731361245398    9.49644319086789
C         8.06260107775246   -0.10263290653838    8.95512682865781
C         7.09904723398542   -0.11333336748411    7.96363354312708
C         4.10764357082061   -1.09939432113000    7.59452605437620
C         3.34347245557272   -0.38031153337265    8.50844126259843
C         2.90217841119345   -0.98915308781233    9.66818617106659
C         3.22257089327498   -2.31383422964985    9.91971534905905
C         3.99094989695460   -3.02769677666467    9.01423440072833
C         4.43764068735661   -2.42564868810899    7.85194104406611
C         5.46457453265479   -1.39935542974917    5.00900323965800
C         6.73287556315170   -1.12076090636223    4.51221983417890
C         7.34013982043918   -1.99756960448753    3.63056999925605
C         6.68200879860161   -3.15432177069444    3.24454207594476
C         5.42187712836505   -3.44166054476387    3.74746763324541
C         4.81030412582127   -2.57019114691636    4.63039428259994
C         3.22436348696540    0.45086168556728    5.26680703831098
C         2.64046292607881    1.61169288081724    5.77281206892516
C         1.53722548603613    2.16278804232218    5.14983224565052
C         1.01487061436611    1.56874916059008    4.01011990367648
C         1.59854013192269    0.42258193051145    3.49940973573467
C         2.69686324592443   -0.14165986856252    4.12635947776367
C         4.63459688200805    4.63809411208179    2.57609929358970
C         5.15926416953377    5.75553402158818    1.93764290975878
C         4.43377969512349    6.93504716202682    1.92652145459817
C         3.19882089914560    7.00257472512254    2.54982587686855
C         2.67918591378862    5.88896144873705    3.19438905023414
C         3.39729915352170    4.70987490935852    3.21600288882582
C         7.06177495927620    3.27966371456960    1.80326208972989
C         7.09526028848209    3.31233516551344    0.41094275901762
C         8.30006311643356    3.51491860933532   -0.23580613600835
C         9.46513997374616    3.68242512627707    0.49807214860543
C         9.43207213846466    3.64466695045611    1.88316752747913
C         8.23161956763769    3.44046061444843    2.53913579973911
C         4.55390617572333    1.91210508703817    1.65522811822802
C         4.95322513429859    0.57776953606036    1.69161702115468
C         4.27517425111081   -0.36868501468404    0.94957418994459
C         3.18871283139926    0.01144783209212    0.17551532704306
C         2.78797344175870    1.33679470581294    0.14136905335805
C         3.46698356660181    2.29231725736329    0.87840029182022
H         6.56246198833595    3.20538006888412    7.67724968947822
H         8.28574604924924    3.22809265696037    9.44397638992397
H         9.24048425041296    1.10652835518722   10.26972567119474
H         8.48379689854158   -1.03539532428606    9.29862052986984
H         6.78179235236875   -1.04730767093008    7.51218215552714
H         3.10595273718156    0.65503331981164    8.31164261262064
H         2.31053158974907   -0.43049483495933   10.37719691146847
H         2.87811642687020   -2.78886215791842   10.82525885735960
H         4.24854465037879   -4.05638956882083    9.21537686061001
H         5.04976721719608   -2.98388849894479    7.15713888337606
H         7.24233077892900   -0.21855295673802    4.82951999368124
H         8.32609778939993   -1.78019242859395    3.24847387018018
H         7.15495939783845   -3.83861695860904    2.55703170391058
H         4.91652420234153   -4.34949736769373    3.45421680159673
H         3.83368461613660   -2.79793773623546    5.03658972172230
H         3.07249739681663    2.09100130099478    6.64011274060472
H         1.08381042807016    3.05648314957906    5.55239544439378
H         0.15641714323026    2.00203194066565    3.52028373470821
H         1.20027886538478   -0.03780696826601    2.60821499296359
H         3.14710534141463   -1.03078362002609    3.71171072931019
H         6.12479918080998    5.70365908809763    1.45467970698649
H         4.83639970970354    7.80488681330639    1.43017040546514
H         2.64053387690460    7.92592153767217    2.53832309155547
H         1.71808157995944    5.94527213417798    3.68264376810584
H         3.01149140379082    3.83083444324448    3.71925254055476
H         6.18122621553614    3.17943038527272   -0.15230560576484
H         8.33165265686809    3.54291381761643   -1.31434119547439
H        10.40240516260321    3.84155000938588   -0.01245581573880
H        10.34133330026513    3.77244901028692    2.45054990482336
H         8.18716188759809    3.40542577048945    3.62087751522699
H         5.80067552999857    0.29371965553109    2.30406144041023
H         4.59138048965699   -1.40103268958467    0.97523794169020
H         2.65518698508572   -0.72742470479989   -0.40275707040065
H         1.94466567588453    1.63080304212588   -0.46483985337349
H         3.15504958781051    3.32686125018100    0.84966769229084

