72
CSD_code = NOLXIY | q = 0 | S = 0 | Stoichiometry = C31H34Cl2N3PRu | MND = 6
Ru       10.46379211411202    5.74906402701251   12.83279254196668
P         8.45090235409178    6.62264789743430   12.07822494126751
N        11.53306590203147    6.95733299551194   11.64336050147806
N        10.83735295420849    7.09398218056999   14.05310989863728
N         9.59819947107691    4.94566220134534   14.45286078301882
C         8.18131894068739    7.11344736372566   10.34322802615420
C        11.98208423501079    7.99083729375665   12.28478079110897
H        12.64404848354579    8.71864135897149   11.82596319882318
C         6.87110836959287    5.73852813265368   12.29414151602625
C        11.61065925393644    8.12355488423955   13.66265560969743
C         8.28902507879885    8.15591744240625   13.03977727790273
C         9.77018948933891    5.68223313427258   15.50592000846888
H         9.43685378499344    5.37505283794834   16.49225329807379
C        10.46585098377135    6.92369197863379   15.33505036898734
C        11.97836605415996    6.69646556009964   10.28677657471577
H        11.35353970228885    5.87533541755171    9.91746592843704
C        11.98296869078870    9.10322708411790   14.58258108470572
H        12.59981420927014    9.93113855667990   14.27157964095181
C         8.62242364986375    6.24043924934862    9.35255685210771
H         9.13875569062608    5.33298789143793    9.64033119156261
C        10.81316831390964    7.87532315954476   16.29341278694915
H        10.51488782421949    7.74232398850604   17.32103848029761
C         6.84932883405749    4.38954115777589   11.94878470475322
H         7.76306038451783    3.91685987034484   11.60960275111930
C        11.56198951334966    8.97535493915902   15.89896193824733
H        11.84009819854370    9.72292337563812   16.62564838387955
C         9.01078962015364    3.62474790941966   14.57895544981955
H         8.81303650483214    3.28447270888802   13.55613153044883
C         7.45822240025113    8.25038315968547    9.99473043363605
H         7.07472849813849    8.90976020177186   10.76080490348571
C        11.80609298897936    7.90020280473163    9.35844137678194
H        12.50773787128065    8.69663342132617    9.59625107425272
H        10.79090942871836    8.28807883871229    9.42580635984652
H        11.98412219727658    7.58708658024808    8.33351944995636
C        10.04374636870793    2.68114836168837   15.20215222384756
H        10.97331061979209    2.73999710618355   14.63830466123405
H         9.67767931312175    1.65891547910762   15.16862592030239
H        10.24575629741162    2.95607041590017   16.23585847992882
C         8.38671057433174    6.53368649050466    8.02124868032176
H         8.73666694302712    5.85905542748907    7.25440566106973
C        13.42962200197402    6.20839589057546   10.32531513293846
H        14.09912710318393    7.00532105894324   10.64399202258324
H        13.72907572035907    5.86270608926605    9.33995603479547
H        13.51367340482982    5.38096419582601   11.02800182414430
C         7.76924427230506    8.11466857448302   14.33227459486749
H         7.32378729788167    7.19887192311989   14.69891080354646
C         8.91546429670988    9.31997704258111   12.59834483827070
H         9.36169643741916    9.34402291082242   11.61257737890984
C         7.69469705279930    3.62428986372270   15.35909243508763
H         7.85400918802643    3.80425234039863   16.41992777741041
H         7.21666851388097    2.65501645961512   15.24865464136518
H         7.02086721657062    4.38397810945708   14.96605657751802
C         5.69357303549419    6.37732356933049   12.67010661756382
H         5.69261741831552    7.43443806334054   12.89606720798150
C         7.22920367812669    8.53594801854880    8.66094319984655
H         6.67523070275735    9.42375926639101    8.39183544094106
C         7.70056725345079    7.68572302254642    7.67333149723054
H         7.52101324657278    7.91773927348711    6.63383691225918
C         8.96863688387633   10.43608871798169   13.41246026026932
H         9.44814704930432   11.33694414673460   13.05836413635901
C         5.66761754255749    3.67558298890211   12.03247985391639
H         5.65530214910665    2.62798196950957   11.77159467467781
C         7.82427115552494    9.23332285123005   15.14279948361561
H         7.41040954264231    9.19513133641965   16.13986082651178
C         4.51714109681893    5.65411821690233   12.75304688898353
H         3.60550402007805    6.14979843928139   13.05432719339622
C         8.41875372767504   10.39716914113454   14.68333742075286
H         8.46281869835234   11.26896931176128   15.31859563311783
C         4.50352824752365    4.30316608058190   12.44533938137797
H         3.58166485916143    3.74486504461346   12.51655130388617
Cl       12.50583501636734    4.79376908314914   13.55271702038165
Cl       10.19597006354733    3.92574411500000   11.34110570122849

