74
CSD_code = NOLXAQ | q = 0 | S = 0 | Stoichiometry = C37H30Cl2N3PRu | MND = 6
Ru        4.68972019810008   14.11415472829966    7.33700671590274
P         6.52816644705779   15.00426444013443    6.22410712854532
Cl        2.89081740153398   13.26423971642830    8.60966708010658
Cl        5.60118913095437   15.13199554137459    9.28367466885742
N         3.90757757526243   13.29514927236281    5.85753527131980
N         3.48195183170109   15.60845037695080    6.72947921358870
N         5.57161486338252   12.30340211231289    7.44922785606368
C         2.96888646495495   13.96523706507194    5.15882418608813
C         2.77148290769425   15.27659899085376    5.68966485410059
H         2.03592206106024   15.95591717651237    5.26759261275213
C         5.17821650891603   11.50223139414213    6.50053642239633
H         5.52950482414890   10.47564095467964    6.44486880271320
C         6.33484029024177   14.36627798505122    4.53153904006046
C         4.22075204357755   12.01477147869747    5.57310676682893
C         6.72606572952878   16.80548758449250    6.02669294557055
C         3.33313759383913   16.87473368741723    7.29659101668365
C         6.49229192529628   11.86034032186637    8.39911861597941
C         6.21746845711426   12.06677242032880    9.75084721176973
H         5.28003099140534   12.52420500548740   10.03440465115882
C         8.24543094189632   14.57043660111377    6.65773824764270
C         3.40333186607701   18.02613105891965    6.51363401991681
H         3.57989808373653   17.94092768482413    5.44990881638978
C         3.60509989529546   11.36175580788947    4.50512946247132
H         3.86118660881713   10.33881585285992    4.28081521762681
C         6.48761978527513   17.60975963630722    7.13745204403021
H         6.16653791369183   17.15497929441349    8.06540069642274
C         7.17856016252161   17.37857253992131    4.84116700391587
H         7.39245773262345   16.75981565605356    3.98073394480875
C         6.85961403771538   13.12184212967808    4.19026081657213
H         7.52156230268105   12.61739979633388    4.88180962356694
C         2.32159188285928   13.35317407787845    4.08519434383375
H         1.56931422180110   13.89263950965761    3.53246259393195
C         5.45815072540336   14.99662517869170    3.65027192935210
H         5.02282643478586   15.94922439453960    3.92445182409722
C         7.68224260016203   11.24191335519533    8.01774240417620
H         7.89929141229095   11.09885997559264    6.96793198113120
C         7.13607115483360   11.67012655052881   10.70252220612772
H         6.92163114376453   11.83275342603752   11.74755647172096
C         8.32739339246955   11.07302701754527   10.32118214543109
H         9.04635900228798   10.77332531427726   11.06908630828876
C         3.13062853512231   16.97940018793087    8.67235425327691
H         3.04987311803643   16.07834395755167    9.26376133434172
C         2.65687285121387   12.04701486138687    3.75949855819436
H         2.16757117206691   11.55708748059082    2.93209794691784
C         3.29732464587873   19.26881700520563    7.10792236689407
H         3.36823735877207   20.15839210539009    6.49938238205510
C         6.66775560361263   18.97857650054365    7.04978100491259
H         6.47472704681621   19.59771926957033    7.91272910433561
C         7.08914247976983   19.55031046728166    5.86121357605176
H         7.22325513118695   20.61977997202466    5.79015261776860
C         8.58100901971243   14.31470058759228    7.98229810886670
H         7.81795265357260   14.36374273613885    8.74663326976137
C         7.35019823399311   18.74823439668130    4.76155117244053
H         7.69299870752278   19.19090060529422    3.83725827873102
C         9.89120357749764   14.01688651547003    8.31561592594510
H        10.14408970285782   13.81167151352205    9.34481474831300
C         9.23652723974979   14.56503612073900    5.67798484143483
H         8.98595117431293   14.79023603273888    4.65044876734472
C         8.59692651615386   10.85873953116844    8.97955617618687
H         9.52468915227179   10.39480435718621    8.67831630640248
C         6.54793165059928   12.54156811345378    2.97458240447403
H         6.96640571768607   11.58011858450241    2.71499724266015
C         3.01827798063205   18.22750676471792    9.25236856455972
H         2.86410008387885   18.30582876290899   10.31757050312871
C        10.86910785608974   13.98171797420056    7.33686353000388
H        11.89021950407666   13.74401945655720    7.59695985345610
C         3.10721845570873   19.37222607046735    8.47597157921367
H         3.02753916843302   20.34584706359953    8.93627683706238
C         5.14960763677609   14.41379382883682    2.43550447636014
H         4.47572160855027   14.91353195518438    1.75505729167663
C        10.54107122173211   14.26459991940694    6.01965726919475
H        11.30575958780409   14.25369495502234    5.25628993084682
C         5.69445176018361   13.18635418933112    2.09463053443668
H         5.44934530095441   12.73082304708228    1.14706208077193

