33
CSD_code = NOLYIY | q = 0 | S = 0 | Stoichiometry = C13H12CdCl2N4S | MND = 5
C         4.31955042956010   -0.22584377540622   10.95997428749633
H         4.16217503268834    0.04613410114363    9.92330461634783
C         3.38391484120451   -0.97120487853888   11.66660753402364
H         2.47906431601355   -1.30626099567780   11.18569919513993
C         3.63539308478434   -1.25272187750231   12.99986291302156
H         2.92735879412458   -1.81730771170568   13.58818217163605
C         4.80777294350768   -0.79129496691427   13.57399654851389
H         5.02887378197083   -0.98450962741002   14.61193464613255
C         5.70213432438164   -0.06496442376629   12.78691464961060
C         6.94120110370758    0.49943201742468   13.33035239673819
C         7.11715378781251    0.62221606315151   14.79775901933237
C         7.00060173581515    1.88245499728525   15.38251556733703
H         6.75972357951680    2.73252192883334   14.75824886319918
C         7.17066731740193    2.02344708047461   16.74901102955763
H         7.07093637402441    2.99878364686711   17.20011583122363
C         7.46450960336430    0.92006293304755   17.53353838290454
H         7.59466778986925    1.03345124181337   18.59924897333287
C         7.59170254487435   -0.33067209119975   16.95131950021113
H         7.82390130971840   -1.19091778062099   17.56111627583097
C         7.42006616845220   -0.48333006195946   15.58661806231716
H         7.52957352690977   -1.45562722052298   15.12765878107283
C         9.66881877055789    2.23377966157625   11.94605033367933
N         5.44208148446923    0.21213538741385   11.50268489945333
N         7.77961433463105    0.95725516067211   12.47475933589699
N         8.88343871797674    1.60244843800158   12.85542667085078
S         9.47671237377152    2.07042967556442   10.30294540607039
Cl        5.04067866418469    2.54503861713134    8.92890381320157
Cl        6.63376728557258    3.74188984174869   12.34378266222446
Cd        6.66339973104304    2.13672515547381   10.55704516958375
N        10.70601999980412    2.93638093645181   12.43957149337964
H         8.99436119994418    1.83812188610686   13.84533054744644
H        10.72773835082124    3.22164447636856   13.40562956094013
H        11.23752669747130    3.47980216474054   11.77919086230219

