26
CSD_code = NOMBEW | q = 0 | S = 0 | Stoichiometry = C8H11Cl2N2O2Re | MND = 6
Re        1.81593426275432    1.60860985567604    4.18810442754213
Cl        0.59247669682112   -0.03959749510374    5.15779828804585
Cl        3.40094246930971    1.42618358745668    5.82694504610178
O         1.04633958132834    2.94050571740884    4.79265923258714
O         2.72642535975030    0.51754386563525    3.06804902009998
N         3.05343437269171    3.03405010921126    2.54141558596156
N         0.48679439273436    1.80278847522331    2.28980335163788
C         4.01182039599566    2.13436746834902    1.91836967269200
C         3.42337887180198    0.69415291142744    1.91229668084608
C         0.93537333864909    2.59846463204969    1.32163261514736
C         0.37481397751833    2.55978642443114    0.04983787379178
C        -0.66998164887309    1.68545070240379   -0.20305128480234
C        -1.12446333930686    0.87000857033420    0.82155104999364
C        -0.50579185447233    0.95959212911489    2.05785377532980
C         2.02680082249243    3.58484798352698    1.66321357927401
H         3.51789308961979    3.77396983451749    3.05395537932273
H         4.26416209156135    2.43746607350406    0.89437197821217
H         4.91474756901210    2.12759787627833    2.53147520477677
H         2.75368554073012    0.56449237893920    1.04207088865562
H         4.23801366157384   -0.03969486454254    1.82336911548831
H         0.75135405126584    3.20787916395192   -0.72664591870565
H        -1.11761125131915    1.64195730367823   -1.18439155703892
H        -1.93596455825193    0.17773811695752    0.66887566150976
H        -0.80328787399108    0.34686150802439    2.89899098018247
H         1.54645637912422    4.40748540512914    2.20364206669707
H         2.46525360147952    3.97879226641781    0.73420728665109

