74
CSD_code = NOMCID | q = 0 | S = 0 | Stoichiometry = C31H36Cl2IrO2PS | MND = 8
Ir        7.70839637810607   10.60808994118924   17.81551291710316
P         7.25255330969551   12.66172709626597   18.73372271811133
Cl        9.60726919683918   11.84077879552841   17.14749997778856
Cl        6.45229991757856   11.39428380017288   15.97121413862963
S         7.16441547646272   18.07703859980987   18.78590518255753
C         8.53513792262493    9.14803154599579   19.25878556413126
C         6.98236697063964   15.42182268066151   18.40914641081353
H         5.93130969085068   15.48542029442228   18.69615583556890
H         7.57853259120067   15.41345490881709   19.32598342329689
C         7.24572725080673   14.13732175826744   17.62718616364196
H         8.21097100277529   14.16821965219362   17.11646638368282
H         6.47793022889962   13.96132537816736   16.87001195537295
C         7.34139625771843   16.67027656444983   17.63387213897029
H         6.67593025001329   16.85487724783314   16.79514577447604
H         8.37411120049529   16.67652937379391   17.29573727671160
C         8.37029194291412   17.70187053598929   20.06903619516660
C         3.27557006311373   12.24178804135261   19.41157986247424
H         2.46533334504834   11.70781182149257   18.93760539391954
C        10.63886298384600   17.65169004241002   20.80403533649980
H        11.68439332481874   17.86141298512792   20.63616190066789
C         8.88623924437707   16.80852338295680   22.22157769503492
H         8.57237472950970   16.35916936984621   23.15153417306577
C         7.94895550465345   17.12929643331010   21.25407536256566
H         6.89295969607040   16.96256884088879   21.40070132010473
C         9.57687646590271    9.35322757100202   20.30975641883590
H        10.47300478622536    9.78857700550832   19.87294502273485
H         9.84624790996215    8.39716350578693   20.76328649456203
H         9.22429866932835   10.02149251266205   21.09221237068628
C         9.70429619692845   17.96746556408509   19.83141927406016
H         9.98846655372395   18.43584137088353   18.90215817492139
C        10.22822220726236   17.06936616783176   21.99298756842213
H        10.95778461633763   16.82461877095477   22.75028049881419
O         7.56162014278253   19.28553039493167   18.11546124297238
C         6.52311827515188    8.77759739284289   18.19981087074849
O         5.84954982577830   18.02463547230881   19.36744724766861
C         3.03039117415774   13.03657499866214   20.51939756078442
H         2.02947318365998   13.12026135399992   20.91570683351855
C         7.58300343005308    8.43807506535286   17.27494372073252
C         5.35638926826276   13.62929678683478   20.61472775819721
H         6.15965370134756   14.17929613958166   21.08321932577073
C         4.07042103158879   13.73208345937083   21.11469986114768
H         3.87835727044331   14.36312446675414   21.96973568663860
C         8.81367336252554    8.64299390788290   17.93464387543758
C         4.55982599866343   12.13533134216727   18.90865316109507
H         4.76235988483858   11.53492332005695   18.03305655166081
C        10.18529744118907    8.33647116335716   17.43253944567072
H        10.79508690711078    9.23952374501603   17.40051321269581
H        10.15166644933312    7.91417737300751   16.43187767343752
H        10.67066536382154    7.62359884312900   18.09994698734992
C         7.11610870684798    9.14387302000207   19.44193747485533
C         6.37333109711447    9.34165261115025   20.72395907064596
H         5.57356707663738   10.07422316283331   20.61578369697024
H         7.04408424677353    9.66722532579315   21.51434824604779
H         5.92268702406125    8.39543385714189   21.02796100439301
C         5.61009313882035   12.82128370807921   19.51083819315206
C         5.07345444973585    8.52475970976051   17.94701577313791
H         4.45856104526761    8.96135075111725   18.72997092082126
H         4.88678083065916    7.44984901142219   17.91412354907675
H         4.77376010045635    8.94605863627947   16.98882722329903
C         8.42651972091560   13.08441121373979   20.05679755597624
C         9.59444563484730   13.79167449031987   19.78727543401609
H         9.79446152825296   14.13858658540130   18.78626562823430
C         7.34744963587301    7.83698518594623   15.92822334329353
H         8.26582578728783    7.79419490420528   15.34860502076367
H         6.62105072819700    8.42677894337851   15.37102489178004
H         6.95252057332714    6.82527186094334   16.03699440154610
C         9.13631352041805   12.82355832269460   22.34388344772225
H         8.95901307260369   12.43956702235362   23.33840896464126
C         8.21488692118908   12.58813334840298   21.34003186512496
H         7.31849012653679   12.02148590526695   21.54805654258382
C        10.28936058018359   13.54093676746910   22.07156772813681
H        11.01276778592026   13.71705353663041   22.85358435404350
C        10.51733009600767   14.01816320132128   20.79168499673362
H        11.42275797665378   14.56301213344448   20.57145073406273

