76
CSD_code = NOMCEA | q = 0 | S = 0 | Stoichiometry = C25H39BN7O2PW | MND = 6
W         7.09920550471475    7.88073295895095    3.47012180384779
P         6.53434172306180    8.71669217064418    7.03318028114217
N         7.76727979510448    6.37336185984947    2.11062912911564
N         9.16715151653776    8.48637817234216    3.22028803677294
N         8.53463400250669    6.63434618183048    1.04053529774988
O         4.27638112602205    6.59497942052380    3.83331797514165
N         9.73865009870107    8.55830993491567    2.00638610765864
O         6.36794676509685   10.89909453717391    4.06119648251176
N         6.74603055310326    8.85707004924729    1.53936941305407
N         7.71339075805987    8.91607028251938    0.61204226254673
N         5.02860132869648    9.41040800338503    7.37451763704009
C         5.31242186299138    7.06592029570174    3.61602649335284
C         6.53916675096267    9.74291657891070    4.34038961344943
C        10.05985940526085    8.90426582972649    4.11604702229787
C         7.63891559053946    5.04912677882627    2.21178642410404
C         8.33147319371471    4.44517143965964    1.16221929933325
H         8.41775898496785    3.39702365791774    0.95994509041108
C         8.89265192864811    5.48616327624753    0.44042729417665
C         5.72767841764143    9.60480209581741    1.12714100028292
C         9.78509276310168    8.94812323057178    5.57679391206996
H         9.14302905974125    9.79789822807356    5.81902682196896
H        10.71774589117798    9.05306230631751    6.12597338634741
H         9.27689690493970    8.03627957909982    5.90239410498942
C         6.66017154716979    8.73738603410789    5.25191970436068
C         7.32471239403179    9.70764671802547   -0.40669946835939
C         6.05574501856554   10.16449432941892   -0.11221944906514
H         5.44745049234420   10.81651931555385   -0.70511239016570
C        11.23638836580987    9.26496271214627    3.45502980600057
H        12.13627232524203    9.64259984317989    3.89619712101150
C         6.14795283394382    6.90221530700597    7.23638237737614
H         5.95904619329935    6.69228195098247    8.28785478097508
H         7.01716672210829    6.33140179419294    6.90970796724173
H         5.28259419364752    6.60966247480374    6.64385828022704
C         9.74844140040427    5.41583893724593   -0.77169713097513
H         9.31607417661673    6.00170217493334   -1.58056104603744
H         9.83954881375618    4.38178061895970   -1.09271030578170
H        10.74271296878847    5.80858559830842   -0.56465472903546
C        10.99548904468633    9.02885945160964    2.11403023984136
C         6.89399040234976    4.40252985907555    3.32696956338210
H         7.00163087288269    4.99652101958567    4.24025882514610
H         7.27966626539766    3.40023120555858    3.50024198122534
H         5.83230504309323    4.32457090826698    3.09120678038136
C         8.16291501636104    9.99542888949568   -1.59970072695633
H         9.10863903277357   10.44688318194982   -1.30548773393880
H         7.63404753258546   10.68237818485406   -2.25453503561954
H         8.38090172066626    9.08167695660058   -2.15019548762598
C         5.00445201134800   10.54635242936361    8.28736150973016
H         3.97049303670617   10.89768309041869    8.34949955928565
C         4.45343179865437    9.78517884896077    1.87020755104792
H         4.24623179356897    8.91669503991285    2.49242371043093
H         3.63731819867428    9.93661810658990    1.16731538699726
H         4.51935019759064   10.65989698253704    2.51496818056738
B         8.98211308497468    8.08038229372479    0.75735973218268
C         3.85498843687437    9.13727675032553    6.55643733412689
H         4.15788065498628    8.36521447074523    5.83913213740379
C        11.91009799530292    9.23082699911952    0.96064408465245
H        12.10528771559982    8.28857614519059    0.45096520456657
H        12.85240413376598    9.64071408763073    1.31405142464762
H        11.47354628413546    9.92013473607745    0.24016968548059
C         5.44655543182594   10.09344894488469    9.67755434972944
H         4.78858103700382    9.30975977143601   10.04527895085308
H         5.42998310502079   10.92625245414005   10.37625882328089
H         6.45987558856091    9.69818600279471    9.62337461607727
C         3.37519042277231   10.34200192229613    5.74465040169960
H         2.95895326346627   11.11558784290164    6.38566810668746
H         2.60334198001894   10.02276563353517    5.04826842812084
H         4.19835740733657   10.76415037597830    5.17561322579074
C         5.88579372523654   11.69431666797824    7.79515718043060
H         6.92857091571960   11.38055516405455    7.80437638023333
H         5.77525984643625   12.56552296705347    8.43695731761762
H         5.62150876488353   11.96877303164314    6.77738845644179
C         2.72044603820270    8.57317938845268    7.41592251982092
H         3.07452546405421    7.72017883049314    7.98976067177824
H         1.89994473943987    8.25101536539644    6.77979675151786
H         2.34521877183655    9.32289515738611    8.10875161167108
H         9.65953185408983    8.13760616449594   -0.20435210566341

