32
CSD_code = NOMGII | q = 0 | S = 0 | Stoichiometry = C10H15Cl3NNbO2 | MND = 6
Nb        2.03559285422242    5.65499324375926    4.14556393286182
Cl        2.67903778555804    3.43128091668294    4.37383556215605
Cl       -0.15461372706525    5.32697100705507    3.60042240061799
Cl        2.35837472116715    7.66537010650651    3.01268111603523
O         2.69367578494036    4.91531053581054    1.71764075772137
O         4.65435625725349    5.70325212797889    3.66493653942225
N         2.04706401246327    6.21317949777388    5.83213828783380
C         2.01411554791776    6.64717271243320    7.09730375242522
C         1.11608886753391    7.66022438023874    7.47808463257871
H         0.46009467263441    8.06712664709631    6.71980592724784
C         1.08396566639601    8.10243428070846    8.78333404028859
H         0.38876598497863    8.87829196049600    9.06867443949933
C         1.93709024168272    7.55674301579683    9.73207327373839
H         1.90512964252074    7.90654018990548   10.75278982835863
C         2.82871428928998    6.55825074072492    9.36784057175286
H         3.49056866861420    6.13226556380285   10.10771235708506
C         2.87324425339348    6.10155181175522    8.06756011540912
H         3.55407584822494    5.31746622461710    7.76310105372440
C         1.87635378954053    3.93294159580105    1.11346266651475
H         1.98455186185044    2.96634431177079    1.62025636165022
H         2.13542457121676    3.82039398090240    0.05422569777546
H         0.84623188949186    4.27882010957711    1.20231899800956
C         4.07025434333704    4.60879203662656    1.61736356512275
H         4.35213295779630    4.52245551885169    0.55728859662798
H         4.28231515650058    3.65858490561367    2.13091552650284
C         4.88184732513258    5.72480790805891    2.26632940781321
H         5.95145813986996    5.56180445107024    2.06847272549775
H         4.57336715412263    6.69572442811611    1.85038909305999
C         5.35906803028311    6.72221894246228    4.35138664694195
H         5.03469502761191    7.71501503600930    4.01763120735845
H         6.43721248794329    6.60853807461554    4.18725356473239
H         5.12324589357179    6.59893373738030    5.40900735363803

