34
CSD_code = NOMGUU | q = 0 | S = 0 | Stoichiometry = C8H19Cl3NO2Ta | MND = 6
Ta        3.44501948942147    6.80228547798313    3.61648664404811
Cl        2.57063295454574    4.92490674332291    2.58695169497735
Cl        5.49190098872233    6.73541715688171    2.62552529316561
Cl        4.14166819194228    7.68427146245916    5.64489835392329
O         4.29640031462819    4.68941684373002    5.06258138174386
O         1.67872560477157    5.83860793859706    5.41401094591669
N         2.50168589773900    8.14845816968538    2.92840177914483
C         1.91190260684884    9.25100975978963    2.28663675693084
C         0.61405392922259    9.64018874859423    3.01818357008075
H        -0.08859499914742    8.81185078643107    2.98038580942459
H         0.16410668332905   10.51045547144074    2.54874581106604
H         0.83793646631996    9.86765301632349    4.05712873613620
C         2.90784294907977   10.42475649847470    2.32735833456674
H         3.13406494474903   10.66930750802074    3.36187303449832
H         2.49310314945238   11.29683689047551    1.82964248563623
H         3.82984818440073   10.12822236460708    1.83374981698348
C         1.60082172739538    8.87223080210283    0.82744778054569
H         2.52115430134845    8.57789053366503    0.32988393314377
H         1.15577749536466    9.71193265640812    0.30115001071973
H         0.91557826315568    8.02907481710155    0.80959928732021
C         5.18358876358120    3.78410888484516    4.43640670450567
H         4.67261312792748    3.21801427800670    3.65014283096430
H         5.60632372188712    3.09040614511645    5.17092262568019
H         5.98035718356577    4.38021051121760    3.99484285745640
C         3.22293787389656    4.03354312931370    5.70902926094774
H         3.61568398101926    3.33017848286713    6.45695125412608
H         2.62243875550003    3.48388245315243    4.97017522935907
C         2.34849436084549    5.07147510779011    6.40115968966547
H         1.60801011659610    4.56400196932167    7.03470123348076
H         2.97579251089950    5.72781025105095    7.01982650612167
C         0.85031119004019    6.84358190082589    5.97030127303357
H         1.44411625236887    7.55879362661196    6.54836769869202
H         0.08393983889141    6.39261003197505    6.60971549965554
H         0.38926317968760    7.35260958180279    5.12661587633234

