59
CSD_code = NOMHOM | q = 1 | S = 0 | Stoichiometry = C29H21ClN7Ru(1+) | MND = 6
Ru       11.87133609626123   11.55738662001268   10.46919080156234
Cl       12.71435762652258   12.80130494451806   12.27484559692557
N        13.47480875468921   12.16916778513559    9.39943521376032
N        11.16578467909504   13.16661489496998    9.79967130908924
N        10.08695662511092   11.52493127999733   11.42129269491789
N        12.57793921760125    9.77440936056238   11.09348080084123
N        11.23721350374993   10.41651983108446    9.05245641223047
N        10.55853889124121   10.93702095750783    8.07070690435013
N         8.90940286054139   10.04990504008782    5.03633664365876
C        14.67782589340718   11.61056833489074    9.30839123888927
H        14.80880386336605   10.66257062230031    9.81782273803860
C        15.72786708738130   12.18981464819149    8.61946921981282
H        16.68655440704331   11.69904971310334    8.58439624554144
C        15.52142313554775   13.40999136748969    7.98966468500116
H        16.31904101122218   13.89325571483699    7.44814896495545
C        14.27467266703726   13.99988480273162    8.08000759060409
H        14.08731736259380   14.95259651364804    7.61282846271583
C        13.26185635868382   13.36500035431063    8.79681323931240
C        11.92583820929665   13.92637849772926    8.99707670138869
C        11.42848004771017   15.12219446923006    8.48678391972359
H        12.02755481275820   15.74030759949211    7.83912004713077
C        10.14383050984600   15.51413855218635    8.83556595648757
H         9.73829371278241   16.43583741974101    8.44994060278491
C         9.38999065166202   14.73296300641880    9.70000196301518
H         8.40338264667248   15.04833772476893    9.99591145060817
C         9.93717519571906   13.54676294451147   10.18069627764478
C         9.33434617472699   12.61571837442011   11.13474602628628
C         8.10041606029282   12.81991229284999   11.74988393662797
H         7.51880763651756   13.69520826374889   11.51198262017573
C         7.63890971990829   11.90470331253501   12.67726138458141
H         6.69113423609193   12.05324148705706   13.16983586971546
C         8.42510792382064   10.79791084992944   12.96870731957105
H         8.11022624105411   10.06492760429711   13.69308600947418
C         9.63578642864078   10.65154747391196   12.31634067192157
H        10.27666658675529    9.80301156033019   12.52754174403455
C        13.28468878362266    9.55468266626181   12.20206123622980
H        13.49175072759484   10.43088295223199   12.80594242214884
C        13.72826460224523    8.29620536077161   12.56725334946988
H        14.29647534926618    8.16983446119688   13.47402403283675
C        13.42989812413551    7.21105716752401   11.75162837498057
H        13.76128093160734    6.21805586824959   12.01006092412025
C        12.69788842747622    7.42811328477278   10.59839993686867
H        12.44980843690725    6.60839894902277    9.94425353818355
C        12.28208618400444    8.72211650869677   10.28943433138532
C        11.50978799148995    9.09091212525836    9.11236739952015
C        11.05393320831111    8.24149190235660    8.09922311201468
H        11.26173444090582    7.18397724555291    8.13375189999476
C        10.33540044505361    8.79067458214362    7.06090759585392
H         9.94885401536234    8.20743107340517    6.24258966860554
C        10.10381290589231   10.17832331540883    7.08302071304915
C         9.35127597662282   10.83899692629181    6.01428015780117
C         9.12081153184320   12.21491249545021    6.03388596894437
H         9.50076980692335   12.80861554545671    6.85014362243618
C         8.40344919341336   12.77570910294859    4.99072822279272
H         8.20504585511746   13.83708305213058    4.97041672529717
C         7.94515620443452   11.95215794732141    3.97420584885109
H         7.38341462423352   12.34949115172158    3.14431861053525
C         8.22817583341778   10.59259301921239    4.04915323224364
H         7.89368956476827    9.90708907807603    3.28250781245817

