53
CSD_code = NOMHAY | q = 1 | S = 0 | Stoichiometry = C15H25F3N3O5RuS(1+) | MND = 6
Ru        7.68057820665556    3.43956239789877    2.09617827034165
S         7.97767361760454    4.20675258869746   -0.83716800208405
F         6.17679367463001    2.58763611618354   -1.69847912311584
F         6.69032593013445    4.05383700060490   -3.20317930304376
F         8.03256365660497    2.41372995320523   -2.77939710352760
O         4.85235183203753    3.95142718735067    1.29660153447404
O         9.88834783465989    3.03634400785192    2.48024239725407
H        10.41541076436856    3.69677453660049    2.95043099171118
O         8.28244123478514    3.06257625982849    0.04997053215687
O         6.92964754872431    5.01951270754502   -0.26299388848169
O         9.13992025437750    4.88950257558206   -1.30706652164705
N         7.31553170115272    3.53761281727099    3.99910755077821
N         8.12708194619753    5.60595258683093    2.52941785054016
N         7.13004015245458    1.38395083832775    2.42411816870388
C         7.76933658647470    4.55689352735556    4.73697080353491
C         7.56894859643674    4.58534902743371    6.10877728028815
H         7.92580886471677    5.41772694747634    6.69345616380382
C         6.90561233379251    3.52549915282797    6.71179571085147
H         6.73931290131174    3.52447175458579    7.77665948316506
C         6.45838194407265    2.46518987671809    5.93232123265770
H         5.94473892471958    1.63027423705894    6.38037348298514
C         6.67226817037328    2.50440432582124    4.56490065727013
C         8.51993377836712    5.60847999791555    3.95679639891942
H         9.59386002266548    5.40220600333295    4.04694198244340
H         8.35038347985669    6.60037267134855    4.39855290146774
C         6.89975869754976    6.40502822289703    2.40197642669333
H         6.12196863878513    6.01166791318013    3.05713804441757
H         6.55646071785140    6.37048537139276    1.36997743090514
H         7.09500422102561    7.44861773329785    2.67327005480287
C         9.16408400168917    6.24132667127276    1.71655886213945
H         9.31284147373584    7.28534238502619    2.01526129207128
H         8.86325893993876    6.21720404118503    0.66958661521959
H        10.11352345238118    5.71664176637721    1.81007909596486
C         6.20041482694907    1.46931007330647    3.57543301220412
H         6.08646673420759    0.48983641054398    4.05728388469879
H         5.21536248097514    1.78172005896492    3.20747301523251
C         8.27977550987124    0.57018188183664    2.81869436676759
H         8.96650406862954    0.47552860232449    1.98095035661952
H         7.95874248822921   -0.43606775709359    3.11127389942464
H         8.79891771904580    1.02824039367711    3.66250289862828
C         6.48024927586715    0.75197596957452    1.27519244784869
H         5.58096220154828    1.29691459194575    0.99278037030506
H         6.21362277768593   -0.28687715693040    1.49500821891273
H         7.16392089806903    0.77464889097078    0.42689626975691
C         5.93932498664079    3.80524685536213    1.59388161796637
C        10.77322044637837    2.46820593105081    1.49799935138947
H        10.15009175586149    1.89643334646261    0.80950554637002
H        11.46298980029732    1.79642907422582    2.02755221260846
C        11.54042131405016    3.52086965300015    0.71711937102976
H        12.23534941152787    3.02573107534505    0.04519665106031
H        12.11859362225623    4.16448560558239    1.38124295815219
H        10.86157160538623    4.12035848024502    0.11132541458149
C         7.17950397639965    3.28407481930679   -2.24808913721456

