73
CSD_code = NOMHUU | q = 0 | S = 0 | Stoichiometry = C22H44N2O4Pd | MND = 4
Pd        3.61562905251154   11.05635932452030    0.00197251783603
O         5.26046968777748   11.14315504977926   -1.26198771360997
O         5.85211486358505   13.28271395196100   -1.33806903192461
N         3.56091862473306    8.90603428520360   -0.34030861858679
H         2.73196521524475    8.79568692020709    0.28412153508884
C         3.05391314662235    8.44022644744376   -1.64981629311551
C         1.84474802548008    9.32810843380498   -1.97472825881731
H         2.18963840986696   10.35930015458242   -2.12582785611472
H         1.11623165052543    9.29927188302863   -1.16491133035020
H         1.35475654993190    8.98946757339150   -2.88487031265121
C         4.06519717020173    8.60993314511627   -2.78702676043639
H         4.58617312031613    9.55565116905528   -2.66508949057236
H         3.54086823794249    8.62027412590600   -3.74012016766156
H         4.79331860971321    7.80788869748052   -2.82051899369933
C         2.58093827650517    6.98250490578183   -1.51351071631457
H         1.70681098870038    6.96538579006314   -0.85849605222033
H         2.28007472751954    6.60757976845515   -2.49332534568502
C         3.65422926380343    6.08256813996616   -0.91138336616478
H         3.25084254765153    5.07685232432560   -0.77573014273083
H         4.50619411621878    5.99836528220739   -1.58771937582788
C         4.09607110791445    6.63809914243351    0.43790440860318
H         4.88515037911182    6.01506989186090    0.86251603986726
H         3.24145064035277    6.61695318361291    1.11807295554536
C         4.59476936022195    8.08989810224283    0.33345333324930
C         4.73596314739628    8.67119225776854    1.74703733459345
H         3.77055812038172    8.69807287921274    2.25177242468931
H         5.14442138455955    9.68765739515336    1.67548904783350
H         5.41465551761299    8.06589577331183    2.34379957749221
C         5.96896836745900    8.17575396581075   -0.33685003872260
H         6.15045865484901    9.19789567256732   -0.65777495509451
H         6.05670046847706    7.51738756822625   -1.19319177274034
H         6.73867788465291    7.89201146094577    0.37756599884714
C         5.99046379816680   12.09602621243831   -1.65303166969244
C         7.13888291501704   11.70217169781875   -2.58025478823548
H         7.24665129530586   12.45134435139800   -3.35966836472978
H         6.96300119828480   10.72208875878961   -3.01430711607400
H         8.05758220991770   11.67735356029817   -1.99728370996690
O         1.96807407251086   10.97019245566717    1.26243396272112
O         1.37614764178070    8.83069811689785    1.33814363136753
N         3.66728140459826   13.20738869195478    0.34030288095225
H         4.49628946774535   13.31772667431109   -0.28405620359928
C         4.17419682542542   13.67325349983520    1.64980356545433
C         5.38329442714951   12.78526086575137    1.97462460654390
H         5.03826606143507   11.75406849581362    2.12537744981983
H         6.11189785055026   12.81421370615393    1.16489296118497
H         5.87323219998493   13.12369165722170    2.88487875862234
C         3.16290122144094   13.50356311646558    2.78701039426987
H         2.64190398469333   12.55785739175437    2.66508092778718
H         3.68723047899877   13.49320316049955    3.74010407342425
H         2.43479772109622   14.30562357822792    2.82050211039081
C         4.64722904585711   15.13094497075597    1.51350775363650
H         5.52138418416311   15.14804489281545    0.85853038233002
H         4.94805611552825   15.50585879678353    2.49333786366370
C         3.57395118105826   16.03086271026289    0.91133911088590
H         3.97735150034828   17.03657140049885    0.77567426911957
H         2.72198046658900   16.11508664828544    1.58766560002779
C         3.13211864506583   15.47530669894619   -0.43794610917192
H         2.34303961820647   16.09834394385839   -0.86254875260326
H         3.98674373927412   15.49647972222253   -1.11810685710717
C         2.63343614810776   14.02348483994902   -0.33355752537959
C         2.49219716157057   13.44233307840027   -1.74720465629806
H         3.45764414040492   13.41530448537184   -2.25185727126731
H         2.08343704828395   12.42596999537273   -1.67587326713663
H         1.81366731441170   14.04782356033138   -2.34394748885304
C         1.25923267105853   13.93761952226810    0.33672905990891
H         1.07774716745122   12.91546930860155    0.65763260146781
H         1.17149757163243   14.59596833810459    1.19308501708969
H         0.48952868677304   14.22138487869195   -0.37768335768866
C         1.23754665452956   10.01744360508636    1.65277837141677
C         0.08929079199590   10.41125913071407    2.58021666397938
H        -0.01847699264147    9.66202383311341    3.35957556087934
H         0.26525649065950   11.39129070141438    3.01435470109013
H        -0.82943144226970   10.43618428142640    1.99729627916464

