57
CSD_code = NOMJEH | q = 0 | S = 0 | Stoichiometry = C26H25AuN2O2S | MND = 2
C         5.46531664838737    6.73231009520720    9.69836202005844
C         5.02210599257537    5.55694783207061   11.54400072949552
C         4.62911880152006    4.80592752135816   10.46661265085218
C         4.72574555349368    5.14367858444518    7.97591153924274
H         4.58619811384639    4.06044641003632    7.96027149133423
H         5.63475662279080    5.38844178916337    7.41893448605876
C         3.53498266301705    5.84977102442351    7.33395168597314
H         3.41965022144715    5.51209586144496    6.30804103820929
H         2.61495932140260    5.64250687350275    7.87524035115825
H         3.69362915761084    6.92584947213690    7.32998799143689
C         5.91316962096946    7.87688196157844   11.82993033585501
H         6.52269147711783    8.52143441598513   11.19147892618467
H         6.50912150370464    7.54452690778018   12.68146512871503
C         4.68463402410682    8.63676656213897   12.32015789118656
H         4.99476905221186    9.50237944165196   12.89763356223525
H         4.09241184675115    8.97738773502774   11.47412159569570
H         4.06791050498390    7.99924857008195   12.95062288526806
C         4.92069048658287    5.22033873931418   12.96392526890948
C         6.04472370670655    5.21230996928261   13.78560442419824
H         7.01623878275732    5.44552415123252   13.37292198140239
C         5.92781122690525    4.87030480446664   15.12040335123856
H         6.80512353626542    4.86473250551917   15.74985750799444
C         4.69348058256938    4.52816796860725   15.64643877901053
H         4.60546417252325    4.26207972862615   16.68881742886547
C         3.57410171035892    4.51948094636679   14.83058152549198
H         2.61138574121498    4.24552016630480   15.23514671393262
C         3.68477023659328    4.86188913825810   13.49620565892928
H         2.81419350824322    4.85666996963846   12.85685253063170
C         4.07640750664814    3.45418461243969   10.48363295684359
C         4.68302167545648    2.48809863029157   11.28570424973248
H         5.56100754377777    2.74883858538710   11.85746355884701
C         4.17260203665509    1.20579109337975   11.34270153786584
H         4.65285576077259    0.46634789626035   11.96567249281931
C         3.05195168704307    0.86773524516579   10.60144860212312
H         2.65603931062463   -0.13550040060658   10.64440894515146
C         2.43860828367826    1.82284422256163    9.80931782696921
H         1.55931147333594    1.56843519350944    9.23651131489988
C         2.94321433293018    3.10928074512326    9.75120101288345
H         2.43734799188163    3.85248112270754    9.15415120639901
C         6.56326853376286    9.41083858042882    5.45839905967781
C         6.00541015341829    8.17446940029203    5.12079380233426
H         5.75437526490799    7.47934461847175    5.91210853207931
C         5.77651175780286    7.83590272134935    3.80899811682576
H         5.34263941003508    6.87834627976201    3.56299206536058
C         6.10347731766540    8.72525693623299    2.78320956861997
C         6.67044709968057    9.96167738058272    3.11541278813342
H         6.92371012280633   10.64214726349018    2.31634336835409
C         6.89559780579250   10.29830622140258    4.42592308730619
H         7.33062127462038   11.25114217187804    4.68668181010940
C         5.87184919107141    8.40273459703861    1.37744733212371
Au        6.11325920093762    8.20904069745039    8.45422393309999
N         5.52487260214878    6.73432639085573   11.04017844642818
N         4.91990318360189    5.55444258840693    9.34670618439163
O         6.13808017164839    9.11748298732059    0.43705888546382
O         5.30662169366989    7.18592951490347    1.18059390664834
H         5.18815218945112    7.05257060190929    0.22823542773583
S         6.86668060752510    9.90718495643727    7.08800050100969

