79
CSD_code = NOMKIJ | q = 0 | S = 0 | Stoichiometry = C26H46N4Si2Zr | MND = 4
Zr        9.28413571737500    3.64394173397521   -5.29713734146354
N         9.34652692342685    5.73326504376350   -4.94544667728258
Si        7.75060937368309    6.29032415083867   -4.71438628341050
C         6.83962967508583    5.24442311871496   -6.04234252289428
H         7.05431049007554    4.19828825357446   -5.78011025604957
H         5.75869018596319    5.37006921681078   -5.97396840670032
C         7.29841489521305    5.51805163859211   -7.48426907737040
H         8.14003875489948    6.21611216189575   -7.48220526351140
H         6.50120440022032    6.01829556139561   -8.03355812187477
Si        7.83575767969129    3.90124433112562   -8.36857139321298
N         8.95467419538239    3.19420722359316   -7.29495822502462
N         8.05512388162217    2.34693650038936   -4.24175412172322
C         6.69094642630263    1.99389283054557   -4.58245557999280
H         6.49276498997229    0.92981378850191   -4.35283854813337
H         6.50337264003485    2.13896217057542   -5.65115244497915
H         5.94298891155093    2.58180290234894   -4.00862463133952
C         8.31789008828681    1.91758331703468   -2.88109735411071
H         8.06343715681670    0.84847423967658   -2.75201751691276
H         7.70872126554004    2.47156883704611   -2.13576805489660
H         9.37528768109288    2.03988334618393   -2.62980259792256
N        11.09180975809413    2.87940415946560   -4.77027481353991
C        11.26009242181094    1.44051717633899   -4.70544551524093
H        10.28555534512741    0.94603991807478   -4.64695445373802
H        11.85376633878627    1.15413776342007   -3.81645739999209
H        11.79944105666381    1.04941987739086   -5.58833869431101
C        12.39196308606673    3.50354994221697   -4.89990798333869
H        12.93460148422892    3.13725125384189   -5.79265968266349
H        13.02599176169425    3.26914107605847   -4.02482429765600
H        12.30141092998561    4.59176496524960   -4.96244473990019
C        10.47295783797061    6.32159786313397   -4.36803037526314
C        10.93114021460863    5.91011337586856   -3.09929729096644
C        12.06025052698066    6.49007734540817   -2.54465268310349
H        12.39705345785789    6.16107065301901   -1.57136307115961
C        12.75409970549335    7.48286555519378   -3.21340022292927
H        13.63152794128936    7.92974673449748   -2.77094106701018
C        12.30733674031352    7.89660855100943   -4.45381872607508
H        12.83830916581691    8.67466106538262   -4.98469824635616
C        11.18043514104660    7.33773688542506   -5.03844498673473
C        10.19483154950864    4.83682496171258   -2.34763189055451
H        10.90038473031825    4.20314455310777   -1.80985519563346
H         9.61234197870781    4.22718980538411   -3.05685159370836
H         9.51707371532743    5.28253540709462   -1.61690530662122
C        10.73465287969051    7.84055137699075   -6.38185807869686
H         9.92457266958709    7.22765831247016   -6.76707216807617
H        11.56336435697350    7.82667416726764   -7.08827540668256
H        10.38187620589003    8.86809788026317   -6.29945803754283
C         7.48303329970893    8.17418327758195   -4.93752354254863
H         7.57029176779848    8.47442962865662   -5.97611188769776
H         8.22522519881476    8.72729593219645   -4.37123498930897
H         6.50360495271468    8.48119707436074   -4.58656564150166
C         6.92809163572849    5.80110929678885   -3.03758842920174
H         7.04194732684642    4.73304163542561   -2.85337164369444
H         5.86492388866079    6.02311606040553   -3.03480326308647
H         7.36607709170573    6.33512107623275   -2.19963937202481
C         8.53726412670018    4.28955377228685  -10.11317861301991
H         8.93698601746643    5.29573420431896  -10.18992943916629
H         7.77322366333068    4.18599834980765  -10.87563314338021
H         9.33606911380950    3.59532909381170  -10.35505613442399
C         6.25030695584005    2.85082385617663   -8.69213085485554
H         6.45720371386417    2.00724004250998   -9.34405299055060
H         5.48708484317475    3.45148418492877   -9.17748316687158
H         5.81820632853770    2.45876860363841   -7.77558193447393
C        10.08093759884101    2.47884899500112   -7.69927458764087
C        10.04787023373466    1.07524602664911   -7.77873146204553
C        11.16056504316426    0.38820931715892   -8.23753231545132
H        11.12686815463137   -0.69027936714078   -8.30764745976410
C        12.31213225271709    1.06454993542576   -8.60456028788043
H        13.16936920012592    0.51861982956016   -8.96916286306951
C        12.36677682623197    2.44317693340078   -8.47982641075965
H        13.27479425946714    2.96997641125277   -8.74074185172671
C        11.26941953642691    3.15967312760379   -8.02857826967326
C         8.80120404625621    0.36727588150271   -7.33778602796353
H         8.48867886149405    0.76507195693137   -6.36577704912719
H         8.96964275614952   -0.70457000641849   -7.26149502611765
H         7.99357674708196    0.54645276444801   -8.04702491220001
C        11.31015999796544    4.65331703661186   -7.86259711550680
H        10.76928251303276    4.93133639340522   -6.94136570419771
H        10.81967044498987    5.14099301119221   -8.70588355899160
H        12.33844527090068    5.00705467246737   -7.81160370579138

