45
CSD_code = NOMLEJ | q = 0 | S = 0 | Stoichiometry = C14H21MoN3O5S | MND = 6
Mo        2.55029559669304    5.07949590339075    7.04136971174055
S         1.15451275089803    0.71668692888012    7.01128907597998
O         1.84316609709713    9.29953994091619    6.98043171371492
O         1.68160672620995    6.68160883991078    7.10054919875882
O         3.53468716096551    5.26590527213683    8.35767476920057
O         1.07563936067986    4.86110742517141    9.33927017824909
O         3.26932350775844    5.04233458516777    5.55902396804344
N         0.54718113483375    4.46307122445680    6.49252278462057
N         0.30730777061717    3.13563241763862    6.52482853219288
N         2.47661142793092    3.06791410869270    7.27305918248811
C         0.71940379878522    7.32323116046736    6.47432739234337
C        -0.36169345016946    6.61993451500792    5.90855136189891
C        -1.38920940108507    7.33733729136512    5.27094441261017
C        -1.33049045414862    8.70572635323973    5.18898690895820
C        -0.26159465477574    9.41113026680841    5.74207172003906
C         0.75928734891621    8.73875938462628    6.38995607192985
C         2.06251700564330   10.68918302993346    6.83608701828564
C         3.40139815254078   11.00628220659734    7.48254571925143
C        -0.40728202368232    5.19516648286291    6.00389398747667
C         1.35090868208799    2.45880575872283    6.94181176536332
C         3.62419536981597    2.28584055376761    7.69848155492304
C         3.76355383376958    2.30243163242309    9.21751290773962
C        -0.54298896163611    0.55876463972676    6.39451586760351
C         0.38458886220068    5.99370300304266    9.83705187187222
H        -2.21665463186313    6.79485251929349    4.84005220054441
H        -2.11652990960860    9.25324100291065    4.69242665904122
H        -0.24463350934504   10.48626536601417    5.66095881986937
H         2.07926088919418   10.95787506075182    5.77096650291504
H         1.25567326937381   11.25135272860271    7.32833661858686
H         3.37500407264001   10.74569323453679    8.53685469692987
H         4.18481692861678   10.42445586770482    7.00508345201332
H         3.62344505761385   12.06470037809065    7.37924451306124
H         2.02086141446387    4.97240038480710    9.54904395776508
H        -1.29840696591581    4.68117699956236    5.64276399697694
H         3.51610958131832    1.25309251027444    7.33817182689042
H         4.51313887413894    2.73860549687045    7.24045263183355
H         2.85551790517831    1.92278707488717    9.68264687012672
H         4.60386925334658    1.68473003723862    9.52185035575085
H         3.94020348475799    3.32721524578288    9.54203391414202
H        -1.20899440418550    1.11078125714630    7.04784334039169
H        -0.59039718436316    0.95285487676539    5.38565688977396
H        -0.77408499724506   -0.50146341233304    6.40814646254373
H         0.82586528804776    6.92724767473160    9.47178229212130
H        -0.64750260546624    5.92263816521117    9.49194271219299
H         0.39491254737929    5.99250460620202   10.93258361123863

