75
CSD_code = NOMLIL | q = 0 | S = 0 | Stoichiometry = C34H30Cl2F4N4Zr | MND = 6
Zr        2.92541605621814    5.08097838209599    4.82626003128513
Cl        2.30762300536022    6.75251784719025    3.21919989148721
Cl        2.89868660238581    6.02439047623023    7.03262274245307
F         5.43122815513233   10.81723956879023    2.66450852423802
F        -0.70930548468395    0.47851796169349    7.75043686294295
F         8.13203739872822    3.69247234653876    1.19983269735471
F        -1.57185780884008    7.49496513754913    8.99528398247393
N         3.60972855779148    3.34287863587830    5.85375687130735
N         4.98010861831289    5.74259280961630    4.81443015556845
N         0.81045623784146    4.70728501486184    4.86131991343298
N         2.96282301636049    3.77900161764565    3.13121933850212
C         4.81961091886788    3.12555167990573    6.34334447636334
C         5.92086186624257    3.93970474321055    6.09091355863928
H         6.84796485449339    3.60013041125648    6.52964692690916
C         5.99213586026508    5.18252607635848    5.44812796732796
C         7.32422565374070    5.88876505349807    5.53930610340919
H         7.91797443632897    5.67975926393352    4.65014683401208
H         7.88042362532313    5.54511522447236    6.40649878888304
H         7.18568521069814    6.96553853201299    5.61042058164964
C         5.08182579417609    1.90782303289923    7.20055769469696
H         5.01956890455567    2.17538346029515    8.25417886084374
H         6.08099766654006    1.52322536237610    7.01256771305341
H         4.35249496527754    1.12467810338785    7.00417020047101
C         5.13604173975818    7.04219226861422    4.27259876909777
C         5.95752917911652    7.28158135196522    3.17108546370749
H         6.51464264139753    6.46545180018525    2.73771724893486
C         6.05218223576888    8.54697944428052    2.62138809471565
H         6.67604450325597    8.73590141332585    1.76224420322928
C         5.33364505551691    9.57942930835847    3.19305490409366
C         4.53149849461793    9.37958013201770    4.30301790338210
H         3.99070729022563   10.20890396188871    4.73007135627386
C         4.43219184479907    8.11101386490078    4.84132529561420
H         3.81220624664292    7.94126815233869    5.71563330354429
C         2.50937599025903    2.62126190425813    6.34038668243056
C         2.14098978862328    2.69944402000301    7.68930325173204
H         2.69906588517276    3.34758960932799    8.34946795656103
C         1.06344080255967    1.97899673407510    8.16727379890039
H         0.77280728702290    2.03097053572595    9.20437498804680
C         0.34570155175453    1.18479225413943    7.28879277270410
C         0.67130640524207    1.10418697164143    5.94560380849467
H         0.08603052665627    0.47930463023542    5.28951779207852
C         1.75588388030991    1.82052692650575    5.47364118923487
H         2.04287106438724    1.74722077507086    4.43278936072276
C         0.07850741469338    4.27755834778560    3.85077571288866
C         0.60771939562175    3.66040666663741    2.71132536912771
H        -0.11792213419517    3.33590013448273    1.98040819746090
C         1.93987404776295    3.48755411817145    2.34299808019514
C         2.18762743242583    2.89035287964823    0.97794361917873
H         2.25601161766888    3.68692841474379    0.23840399763520
H         1.36824768262877    2.23635486898769    0.69235499708583
H         3.11988373831317    2.32910264499305    0.96007798159284
C        -1.41768840152789    4.46326132045930    3.89291102952393
H        -1.84466375401318    3.90234386201482    4.72286133558208
H        -1.88232676022009    4.13348653439439    2.96913555521770
H        -1.65037325207079    5.51589420669316    4.05097680599805
C         4.27382818668914    3.75022059225105    2.62734815308178
C         4.67692324802585    4.65707232392413    1.63969732873456
H         3.96878852047681    5.38981680497616    1.27627541236518
C         5.96961009783381    4.63234524917959    1.15091900291550
H         6.28875999601298    5.31885719882314    0.38227560057700
C         6.86327659184468    3.70770155537641    1.66402228629336
C         6.49472628201779    2.80112177174878    2.64187951227186
H         7.21577778648618    2.08903394130690    3.01066883009688
C         5.19538892939986    2.81637388488154    3.11392813333166
H         4.87753898668233    2.08989495766720    3.84866767386565
C         0.16514664514210    5.41279447625387    5.90806639063496
C        -0.48280861303406    4.73519677972701    6.93862936489401
H        -0.52126985316429    3.65658920745100    6.92019596877351
C        -1.06164726543870    5.43165191006245    7.98411726968431
H        -1.55417687106372    4.91527206244261    8.79256917905106
C        -1.00175169155148    6.81214000454228    7.98061022126650
C        -0.38745361797796    7.51331362400319    6.95747372547042
H        -0.36346638019244    8.59098595347447    6.98494108716260
C         0.19537022549165    6.81210967961671    5.91937052746821
H         0.68336524563485    7.34412722286960    5.10873278423119

