34
CSD_code = NOMMAD | q = -1 | S = 0 | Stoichiometry = C13H14IrN2O4(1-) | MND = 6
Ir        9.04204222228688    0.17065599347737   19.45351128599477
N        11.14200542175677    0.12673264170326   19.46079962228884
C        11.67053920124471    0.35693170630812   18.22825435003015
C        13.00289364369991    0.39467768499540   17.95207650758375
H        13.33263669943868    0.58427720499096   16.94430798751372
C        13.96023201355972    0.18770087031396   18.99468468273767
O        15.18180582447294    0.19199349130259   18.90788439526460
N        13.35157715528238   -0.03607991884096   20.22095760447428
H        13.95817091525204   -0.18863202020685   21.01778677614146
C        11.99065012201678   -0.07305981769402   20.49689426149336
O        11.63503012450556   -0.28292833299291   21.65087113408330
C        10.65808904052644    0.59249756749300   17.11134920365350
O        11.04617024432734    0.79142805729866   15.96819966374519
O         9.43173720932269    0.56743542602628   17.46613470213436
C         7.13743664986531    1.03863605666509   19.30134213368433
H         7.08639042437993    1.66635146853595   18.41325194600561
C         7.02234378465047   -0.35071191898411   19.10773617376230
H         6.91378213910193   -0.69303007602420   18.08115274373557
C         6.40414286461992   -1.26885169890312   20.14689015036472
H         5.89006494867804   -2.09089042913453   19.64378424562542
H         5.65174076455406   -0.71590166558817   20.71230391072010
C         7.47110044941722   -1.84492184960963   21.09832273476882
H         7.04572732573284   -2.00736545839719   22.09555289175372
H         7.79458228665426   -2.81738726403586   20.72274962388318
C         8.69377992491347   -0.95424588747889   21.20243868915865
H         9.59405892508423   -1.48065430579503   21.50958932210968
C         8.63725397129041    0.41448585738609   21.52135226754711
H         9.51009372401734    0.81973150954862   22.02446115960267
C         7.33225375130578    1.12757210954284   21.83242383708830
H         6.63913039211926    0.42087086273993   22.29275772950321
H         7.51886148208769    1.91760070916460   22.56268837648796
C         6.70327839104724    1.74741040814852   20.56896571329530
H         7.01477130103761    2.79065076964959   20.49186704770351
H         5.60912666174999    1.73992024839487   20.64375712606088

