51
CSD_code = NOMMOU | q = 1 | S = 0 | Stoichiometry = C19H28ClN2Ru(1+) | MND = 10
Ru       10.71414684788632    5.58325135803864    3.01064476562233
Cl       12.21554096015438    7.22209239722507    3.80231474868730
N         8.60831837902951    9.26309098637255    2.82564539000230
C        10.63900841290133    3.42612702650689    2.29534113300570
H        10.32015072948305    2.50778229013339    2.78074682886731
C         8.51765925865388    8.91028633790084    4.11178244031009
N         9.08283791348298    7.70759438748516    4.23509672295437
C        10.19689742181855    5.26213583663934    0.80315143721234
H         9.53210442540284    5.79588811654994    0.13149940013943
C        12.49018579841932    4.88441361396987    1.63187809421405
C        12.01393196361032    3.76940843835319    2.32693136462341
H        12.70321936064468    3.12185075652270    2.85340218784257
C        13.95425057908337    5.22651853298315    1.54133883608275
H        14.03985946582445    6.31036886989417    1.40586145642166
C         9.25801745830019    8.26519672396257    2.14273550333612
H         9.45610490832323    8.35880465188779    1.09454982484275
C         9.55200330360649    5.46226737150702    4.87028679801101
C        11.54052500370730    5.67415320776556    0.92443500259909
H        11.89245410146341    6.52455622955769    0.34846461425704
C         9.56975259424033    7.26703927156161    3.02423489134204
C         8.34353823114869    3.58534379010064    1.21259108712101
H         7.62880681216444    4.39615854145057    1.09017102780320
H         8.00864482272904    2.93564104070898    2.01728764535395
H         8.34785425709845    3.00141759935865    0.29063407147598
C         8.29785020816814    4.62868188703875    4.75333582077684
H         8.51981305122442    3.62881197366920    4.38987492585975
H         7.57190376152305    5.09699573351037    4.08945059437025
H         7.83815091703801    4.53040860342373    5.73756704165584
C         9.72311213918896    4.11028377549879    1.46506856002680
C         7.90120473319281    9.73195784111988    5.17480210664285
H         6.84159114164015    9.89296049284027    4.97512636511053
H         8.38220220388307   10.70859173015830    5.22183991533141
H         8.00737213619347    9.25017176886252    6.14127237893227
C         8.12927527207737   10.49761011109259    2.26593577496973
H         7.06098569848778   10.61382090894625    2.45330477993804
H         8.30354291319380   10.49657010768953    1.19280074332258
H         8.65601119543562   11.34511625297319    2.70734642590400
C        10.80787695895575    4.87457652427130    5.05697832144786
H        10.87443897416424    3.79031928705047    5.10036559201653
H        11.55985533118473    5.39428304869312    5.64461114368526
C        14.74940470966462    4.84089714341290    2.78710823047081
H        14.27801207450891    5.24740502139107    3.67963012084108
H        15.75132010295086    5.25481564730631    2.71589131435416
H        14.84144795164142    3.76177526535693    2.88651106812078
C         9.30496514680924    6.87652458481443    5.39576934607252
H         8.43277902295645    6.90069601255890    6.05404771081616
H        10.18859302277500    7.24373008811515    5.93166538732022
C        14.52168777183420    4.53217921123759    0.29544330756332
H        14.43881144106956    3.45125151566935    0.39062002747247
H        15.57130532558137    4.78801831879886    0.18283591973074
H        13.99247378546366    4.84265976806469   -0.60312819490457

