67
CSD_code = NOMTUG | q = 0 | S = 0 | Stoichiometry = C26H34Cl2N4Pd | MND = 4
C        -5.01902996791590    2.58282861207736   22.23366134055212
C        -5.28964820916603    0.80758244430045   23.50971639222818
C        -6.69833815241325    4.00042644179198   23.50553578616103
C        -8.13742242267835    3.78335769687141   23.03460269043463
H        -8.73984195992624    4.65885277061956   23.25907544369878
H        -8.56654681023569    2.91910071746870   23.53552787461236
H        -8.15086723395764    3.60854655699109   21.96044638370236
C        -6.64182847438217    4.15967264049364   25.02801630452084
H        -5.61580384578864    4.31816458931399   25.35390199041415
H        -7.02925697302011    3.26837004930066   25.51287877491771
H        -7.24069887856929    5.01378658139732   25.33058568488369
C        -6.08474450151511    5.23625289137329   22.84102818170503
H        -6.28730358874191    5.24793293734733   21.75950362129704
H        -5.00422019444536    5.28447640133419   23.02502722169530
H        -6.54248181834370    6.12456585149688   23.27142647081012
C        -5.18395305381351   -0.53106033749944   24.06185356327939
C        -5.65360650108104   -0.75384696247078   25.35688125943851
H        -6.07329589182176    0.07440758442240   25.90528996475618
C        -5.57341387756626   -2.01228788550772   25.91889839183138
H        -5.93388732294387   -2.17631999927516   26.92335507651700
C        -5.02872522705490   -3.06323298478311   25.19747168061092
H        -4.96167587633418   -4.04620763058190   25.63915508215871
C        -4.57414571562726   -2.85079312644576   23.90667732267860
H        -4.15651920404917   -3.66854348145371   23.33842434692368
C        -4.64990986008237   -1.59356871002666   23.33582128884082
H        -4.29785988087647   -1.44293891602135   22.32762474833690
C        -3.35500352298040    0.79648318571404   21.92387019839307
C        -3.28471544955064    0.38268752469049   20.59067456384271
C        -2.07968916001239   -0.12984383166101   20.12480195624083
H        -2.00291760928413   -0.45482112991179   19.09888863832601
C        -0.97972160566245   -0.22314992372349   20.95249139482328
H        -0.04994158328330   -0.62102245251912   20.57372074731618
C        -1.06444392855709    0.20547469697824   22.26207761142139
H        -0.19323136887817    0.14656531158356   22.89499478055229
C        -2.24461937393131    0.72466731034344   22.77628739237021
C        -4.46270767717302    0.47105537865019   19.64754145924928
H        -5.31585501778194    0.93263504241667   20.15952450833257
C        -4.90370262886886   -0.91675810936246   19.17690402109645
H        -4.09635042465284   -1.43313372206943   18.66248781988561
H        -5.74331063148450   -0.82001499875406   18.49299851122411
H        -5.22075346812424   -1.52794839931586   20.01999323994064
C        -4.09178875505620    1.36260083009050   18.45364256505426
H        -3.59216283882279    2.27841561494215   18.81282894886887
H        -4.99150777581389    1.63670899158715   17.90497496393635
H        -3.41316623614399    0.84857854633936   17.77593966757939
C        -2.26252942344322    1.21529708779980   24.20564902024752
H        -3.25994178736402    1.58274272635901   24.46241030419725
C        -1.91980515755990    0.08689582203104   25.18238018604866
H        -2.59372492566993   -0.75744852914014   25.05372389563020
H        -2.00952650627770    0.44592046841488   26.20523680288417
H        -0.90113690847522   -0.26067878738158   25.03230109193978
C        -1.29113282750752    2.38780746622881   24.36676317265444
H        -0.26425576623766    2.06725649365860   24.21305965651939
H        -1.37543968604820    2.80556312093491   25.36772655622868
H        -1.52002585668495    3.16371333976402   23.63995758194846
C        -3.74918775936564    5.70750333980375   18.55694895127026
C        -3.20222290385466    6.74984633441965   17.74477715976201
H        -2.28121313416716    7.11395589658026   18.20037645516886
H        -3.91779868460294    7.56822810665447   17.66744349084057
H        -2.98584114440707    6.36261193798531   16.74924256661502
Pd       -4.59740178670521    3.67574579532824   20.69206797771856
Cl       -6.70387424672845    3.23143874468006   19.85995667589938
Cl       -2.51811571662154    4.14783527940195   21.52825637986473
N        -5.93576124004420    2.79357225226345   23.17821577916674
N        -6.12176852565498    1.70745834268040   23.94719180045980
N        -4.57271491476598    1.31941043998992   22.45279020052351
N        -4.19096659925280    4.85931972288371   19.19069441887083

