83
CSD_code = NOMTIU | q = 0 | S = 0 | Stoichiometry = C36H36Br2I2N6Pd | MND = 4
C         8.88855637052872   -0.09732030814101   11.83103914618640
C        10.17826849807859   -1.59707171639714   10.82996164589944
C        11.10608335563428    0.69988450201019   11.12388441358115
C        11.87399608637434    1.05739722370783   12.22914304612646
H        11.68289404742289    0.60673050077135   13.19290868475812
C        12.89750410503864    1.97446355532928   12.07921049482592
H        13.50511521910774    2.25462918802357   12.92529089336598
C        13.12974755512191    2.53144858375410   10.83123862262829
C        12.36279418411611    2.18866576161046    9.72950002247765
H        12.55377359666802    2.63847558230816    8.76813113995093
C        11.34931045071670    1.25993701083666    9.87446186267102
H        10.74506535523427    0.97419148665943    9.02658730413687
C        11.28271520163734   -2.22580711849658   10.12601616897648
C        12.61066617996019   -1.85228834472894   10.31746882298566
H        12.86883886055450   -1.08073433353272   11.02672373230580
C        13.61545436574870   -2.49275735424922    9.61573111116714
H        14.64247425468576   -2.19772158968609    9.77076806044949
C        13.31101986627083   -3.50827754183606    8.72512688814315
H        14.10041606083343   -4.00172336895622    8.17851293664300
C        11.99245836483758   -3.89456571406522    8.54334877947353
H        11.75174347968809   -4.69180894034880    7.85625785043065
C        10.98265009325830   -3.26041752751153    9.23911576830816
H         9.95168571715750   -3.54943774281186    9.10750081762695
C         7.00630506540144   -1.73590756356420   12.25823269605041
C         7.27149382031242   -2.37295123581162   13.62541454896026
H         7.97321215469802   -3.19801362304712   13.52445478269300
H         6.34365287529923   -2.75186525820081   14.04444215817646
H         7.69015974011691   -1.64222129342242   14.31528615692368
C         6.05719623543984   -0.55103915637899   12.38976613823845
H         6.45715204758683    0.20101083210909   13.08968380862029
H         5.10870095561723   -0.90466937856218   12.78433691328416
H         5.87588576264862   -0.09596882806825   11.41397321140848
C         6.42729782266797   -2.76196922655865   11.28493106659145
H         6.28488407931698   -2.31445203811277   10.30343013129805
H         5.46648520112639   -3.11035282988945   11.65290774057168
H         7.09855022680349   -3.60989382196290   11.18577920769343
C         7.66939006837810    3.57727137404163   12.95856482931212
C         6.38037484948010    5.07661538522120   13.96124519727604
C         5.45125868615148    2.78043013535656   13.66320018660642
C         5.20597983157445    2.21828531198109   14.91129708793343
H         5.80898660275321    2.50235625657328   15.76064718015951
C         4.19191157897719    1.28968875741327   15.05305714999216
H         3.99924628924814    0.83826069877716   16.01335659116025
C         3.42656183535832    0.94904130155784   13.94952254101935
C         3.66085140623778    1.50815434781064   12.70285251528154
H         3.05454417267252    1.22963433831910   11.85527181715600
C         4.68482631108139    2.42518167301722   12.55614788722046
H         4.87734191187960    2.87771004853554   11.59351978952940
C         5.27590666734031    5.70524334944175   14.66525378032130
C         3.94801897042559    5.33186817073282   14.47324913119991
H         3.69009309054274    4.56079180017353   13.76349651802753
C         2.94297577571727    5.97197462802262   15.17495461776952
H         1.91602747348770    5.67698450763686   15.01949282516867
C         3.24712108134502    6.98696109085788   16.06615664106764
H         2.45751865639428    7.48007025892421   16.61275783020095
C         4.56562051716869    7.37321825800968   16.24838766514620
H         4.80607530859413    8.17007329970255   16.93592972245548
C         5.57567309758398    6.73945204439548   15.55262797697145
H         6.60659241993509    7.02839528719491   15.68468952794590
C         9.55169848401617    5.21568808573298   12.53155661543308
C        10.50120026126388    4.03113781370048   12.40002074904205
H        10.68370203078901    3.57695129554395   13.37599010137906
H        11.44912498689566    4.38470099409665   12.00402555292754
H        10.10068608685332    3.27837143123110   11.70119218229596
C        10.13132524917589    6.24257320167254   13.50356419238599
H         9.45893123551505    7.08937154492299   13.60434301384264
H        11.09066154608376    6.59255751618122   13.13330939147255
H        10.27675926076272    5.79523463629189   14.48466780141225
C         9.28501053330235    5.85165035091380   11.16418245571090
H         8.86438524666594    5.12063957156485   10.47582554203060
H        10.21252284615102    6.22905328781361   10.74309958954012
H         8.58437108347415    6.67759413715197   11.26541823670823
N        10.10716293202131   -0.29312701149572   11.26327187388691
N         8.28950069647671   -1.28511021854922   11.72708420103489
N         9.06762958961808   -2.20052285227301   11.12402194969601
N         6.45087588424582    3.77309790466560   13.52653868270862
N         8.26905128963744    4.76467550043019   13.06388589381167
N         7.49135607671489    5.67979671564310   13.66794015416440
Br       14.52784342190195    3.81414103776922   10.63217643395166
Br        2.02829006778673   -0.33413703199515   14.14397581839089
Pd        8.27877186525951    1.73992062795980   12.39455664282857
I         8.97538140828194    1.29240941740853   14.87619740975433
I         7.58255405873737    2.18777134691127    9.91260973312333

