40
CSD_code = NOMXOF | q = 0 | S = 0 | Stoichiometry = C17H15N3NiO4 | MND = 4
Ni        4.60766805661201    0.35082693428823    1.55859635972589
O         6.36990018230187    0.59642168446162    2.13418464087259
O         4.68423164078654    2.06937796933038    0.91001868285159
O         9.52793648347771   -3.90304479927853    4.97296331277374
O        11.11401186884020   -2.51321389756294    4.54401884665314
N         4.42130747704219   -1.20052771976772    2.63321661389361
N         3.05316688628259   -0.02701902123068    0.56001127678761
N         9.94552543095161   -2.85367365708214    4.51350812190826
C         2.76118636650643   -1.44129916344248    0.38230823901720
H         3.67500103415589   -1.92543874919784    0.01797870439617
H         1.98255316297254   -1.57573823306470   -0.37953806635868
C         2.31570570403220   -2.13305258490882    1.67887624805736
H         1.24457750900184   -1.99279541657039    1.82903340851864
H         2.50499855846890   -3.20218508183203    1.57551170655330
C         3.04792953166783   -1.58615023927315    2.91295675276303
H         2.52441053812217   -0.69049560310724    3.26786868667130
H         3.01613778899097   -2.33737341084824    3.71274772337277
C         5.35916148371696   -1.82255762214874    3.26093552035140
H         5.08949140448211   -2.66594707754188    3.90182589182161
C         6.74205321787337   -1.48087152546800    3.24775502290788
C         7.67293812167586   -2.32292420330550    3.85317075023055
H         7.36258306076325   -3.26539023015315    4.28157981043641
C         9.00770717777038   -1.97429028033623    3.90393887267287
C         9.44402780818519   -0.74898890129228    3.36241636865743
H        10.49404062586769   -0.50590124596469    3.42614905773324
C         8.55257174521794    0.09751190883648    2.78011184248093
H         8.86455649223361    1.04091252159048    2.36103174471147
C         7.16381288097356   -0.22555378629227    2.68111582259493
C         3.78482414435420    2.76528242018645    0.32046449198758
C         4.00264326335205    4.15453157053379    0.12412855449170
H         4.92571392516820    4.56642974054372    0.50102960521101
C         3.07456221779371    4.93681391169969   -0.50435172319696
H         3.26397759490150    5.99297517261481   -0.63062004724834
C         1.87889885828253    4.39155126950956   -0.99280759343460
H         1.16106652663291    5.02653048948076   -1.48808724257705
C         1.63838216977106    3.05420637359412   -0.84049804443690
H         0.72367646625377    2.61659546329819   -1.21572784023428
C         2.56423828145568    2.21826788922269   -0.18619573147358
C         2.33046236704281    0.82571113499638   -0.09430538286609
H         1.48006194601738    0.44688599548199   -0.66642100927780

