79
CSD_code = NOMXOE | q = -1 | S = 0 | Stoichiometry = C42H32NO3Pt(1-) | MND = 4
C         4.71965164474682    4.82116267071782   11.99128790409657
C         3.73135010872716    6.87463312042541   12.41198473002825
C         2.50039794420387    6.41793823256883   11.91203681892058
H         1.65759815766785    7.09404733878738   11.91073492226548
C         2.39358732353388    5.15374754973940   11.39660305731304
H         1.46820993087991    4.79581127158482   10.96765618750599
C         3.50965411185813    2.98518621659768   10.94686437743511
H         2.59914835997884    2.60569698293480   10.50340444408324
C         4.63132284782353    2.20301745851842   11.02317715286731
H         4.61613919949498    1.19420515764446   10.63496450091414
C         5.80047940608132    2.69982930471778   11.61219801572871
H         6.67203778858219    2.06560127717727   11.68283100976398
C         5.84311802551884    3.98133255300561   12.09504254412577
H         6.74278928424981    4.38686520780146   12.56005129150618
C         2.91353902255186    8.65562129984330   13.92286655444927
H         2.11337209957414    7.99214671541453   14.22165909637045
C         3.03815540682750    9.89807699533434   14.51607419109393
H         2.32094875546692   10.21058618931694   15.26309450063116
C         4.08847745025802   10.73197447233146   14.16722070332497
H         4.19449576800961   11.69574165444235   14.64567312363104
C         4.99659656932653   10.33010781615647   13.20337400525486
H         5.80851766482936   10.98254252693982   12.91856833773515
C         4.87757579453656    9.08771241767842   12.60108817278743
H         5.54819242139294    8.82194763556958   11.78510263505749
C         3.83924608057092    8.23083640224012   12.97391798060527
C         3.52025097428326    4.30503183981296   11.43602893818746
C         8.47533303324897    7.61934948585005   12.82722690401970
C         9.58636847025388    8.11168551281574   12.88695173758690
C        10.88115682148045    8.66467230599035   12.97120769042024
C        11.95653128715181    7.85728233050680   13.36320018798675
H        11.75095711534636    6.82359948161100   13.59468783934448
C        13.23178231220025    8.38489080815016   13.44650593249133
C        13.45213339758371    9.72741667432151   13.13802824143484
H        14.45554021511388   10.11881415973477   13.20985350068942
C        12.39080915117488   10.52478645176242   12.75031569775766
H        12.56947359331114   11.56543949950917   12.51265280398228
C        11.11341446986950   10.00795248584159   12.66452127229204
H        10.28401516203956   10.62985164720778   12.36121582158231
C        14.18374307131187    6.32010890012283   14.15332862168424
H        15.17502409517667    5.95431936534818   14.42222017780434
H        13.80229000140253    5.74019124714318   13.30551170269949
H        13.50765032334493    6.19270144854955   15.00599275245133
C         6.83649645497037    6.63573594295145   10.70282673994753
C         6.61965671843221    6.26838103150684    9.56416524529202
C         6.38473896136415    5.85497672149588    8.23532088657915
C         5.38211540547936    4.92278859403586    7.96718483898580
H         4.79325477747230    4.50869032454774    8.77251560923203
C         5.12470767430024    4.50860360287075    6.66785533302338
C         5.87121060781760    5.02255049501303    5.61467844225414
H         5.69226652624308    4.71808496455247    4.59415026225235
C         6.87180948390406    5.94904943935637    5.88201097921990
H         7.45124784880426    6.34407011185678    5.05712845987524
C         7.13310520757929    6.36673247242985    7.16689760327602
H         7.91316901631824    7.08728518021113    7.36676320033044
C         3.79677609543958    3.13675867453090    5.24046503695681
H         2.97666500843128    2.42871449213699    5.36101745744851
H         4.64573201986496    2.62507108234528    4.77124785346776
H         3.46956428076155    3.95652056783279    4.58937658778749
C         6.42072115010591    7.03400020162958   14.66638626788156
C         6.08906661851173    7.21193152753923   15.82203386279435
C         5.70121000334421    7.43902469475616   17.15916561998066
C         6.14423296225266    6.61608126713173   18.19352537129172
H         6.80294531022244    5.78655232659541   17.98527727972419
C         5.75433156043591    6.85050376122846   19.50551619619823
C         4.90877292879949    7.91231964161702   19.80099111380883
H         4.58971816082320    8.11625372548792   20.81232404024408
C         4.46550807601320    8.73170759559550   18.76969466922570
H         3.80750889830653    9.55861490677306   19.00578168654721
C         4.84867786319461    8.50899814785607   17.46759890512877
H         4.50387975859612    9.15071905090127   16.66978752102058
C         5.92764726102357    6.17840495434059   21.78614058764393
H         6.44256164766290    5.39655567165499   22.34484453286616
H         4.84790755142023    6.08966586967928   21.95843397910944
H         6.26717972792660    7.15777002956628   22.14439914661311
N         4.81755412475857    6.10720047296281   12.42249847004475
O        14.35094841481924    7.67287767857526   13.82242206370816
O         4.10749680320883    3.58754166754642    6.52845712694107
O         6.25932854224540    5.97255930672952   20.44238149680125
Pt        6.66131188786388    6.86834169229443   12.69280944657036

