97
CSD_code = NOMZOG | q = 0 | S = 0 | Stoichiometry = C50H42BrN3Pd | MND = 5
Pd       10.15674723298153    3.75453474467927    0.42344828948340
Br       11.57060342939374    5.17152709677603    1.68110534129146
N         9.43887120896311    5.22080143150614   -1.14081427835257
N        11.53944945550834    5.94011082273058   -1.63731121614144
H        11.67837239404713    5.93172179023152   -0.62422338693818
N         9.91711534716449    5.82594803068096   -3.34976012573744
H         9.08140063431239    5.32557495056398   -3.62151357488433
C        10.27575094190958    5.67112096211461   -2.03709084226627
C        12.69973129468522    6.08931157049551   -2.40792513944288
C        12.86894347067839    5.41594466594448   -3.61205838334964
H        12.09855756169272    4.74962048320972   -3.96524060025805
C        14.02675586229830    5.57952987494732   -4.34804909575086
H        14.14276390299843    5.05501114170517   -5.28466080433928
C        15.03110487017561    6.40653484890801   -3.87961951282906
H        15.93727276144938    6.53979642752401   -4.45092066516228
C        14.87244962663175    7.05924644849429   -2.66943180249626
H        15.66136407233223    7.69884851063807   -2.30108468071244
C        13.71729786898928    6.91793053042595   -1.91617809739160
C        13.55436076818563    7.63942620579354   -0.61495120526493
H        14.39439195710029    8.30635923464713   -0.44378065103583
H        13.49943929709228    6.93927678999847    0.21905339972482
H        12.63865882092269    8.22894414861040   -0.60760155949083
C        10.38633563144734    6.78259462979380   -4.25768970830296
C        10.96888743459799    7.96794446748871   -3.82106633334113
H        11.04647675941714    8.17194088791969   -2.76498700332884
C        11.43733181819499    8.89306838932117   -4.73326909045246
H        11.89630284440699    9.80354682540927   -4.37999137660516
C        11.30824965010908    8.65458462493073   -6.08952552373359
H        11.67482799570070    9.37274611818677   -6.80666199454829
C        10.69475128230922    7.49293408225992   -6.52432580143552
H        10.58056839951262    7.31225192142476   -7.58352359573749
C        10.22669442201976    6.54523476646604   -5.62802359157665
C         9.56183801676063    5.29088155976708   -6.11036530022250
H         9.61777941782898    5.22473979935113   -7.19357761132400
H         8.50764118096743    5.27421332650168   -5.82541527227940
H        10.03998189923253    4.41073091415958   -5.68212329807877
C         8.07629415238893    5.03863069430118   -1.40541513634381
C         7.50061866538832    3.82608095225135   -0.97742846619364
C         6.15306542236475    3.57879297742899   -1.19179469789104
H         5.72704134163666    2.64533711670419   -0.85220066513277
C         5.36556838760019    4.52025219045765   -1.82891005301729
H         4.32190687687142    4.31807101030787   -2.01515219254433
C         5.91002364592300    5.74407424434264   -2.16944573630518
H         5.27925265074957    6.50975443995570   -2.59813285560067
C         7.25064580733329    6.03534235305070   -1.94944567440645
C         7.74031972733648    7.43170371337381   -2.20477142303232
H         7.98449139165920    7.59477761282898   -3.25520997786470
H         8.62452680393837    7.64962530311710   -1.60904824150550
H         6.96111434184454    8.14222594969451   -1.93463793893025
C         8.29688559770878    2.86080998649719   -0.17518303528423
C         7.71033142721202    2.58414111926653    1.16794805973555
C         7.67467094669701    3.61535562105895    2.11177812507279
H         8.05613196361845    4.60885317384702    1.85067234372123
C         7.15239307821382    3.38565429525592    3.37125878257792
H         7.14264779529127    4.18103076179052    4.10143492373599
C         6.64858696750715    2.13603288910248    3.69724575615728
H         6.24498195861005    1.95678200930725    4.68257190453994
C         6.66720581080292    1.11660464737254    2.76058542616502
H         6.27583953552100    0.14163254675646    3.01232444124676
C         7.19525782345154    1.33588053968100    1.50000377131762
H         7.22137088327948    0.53400348197020    0.77558817933351
C         9.36431658400333    2.12081819414063   -0.64321529304070
C         9.86377915634841    2.16648449736074   -2.02739354145577
C         9.01570052306396    2.06775862433862   -3.12778334469458
H         7.94761646429854    1.99283513982123   -2.97668344630334
C         9.53917266166305    2.04503287612673   -4.40789076018246
H         8.87431319075580    1.95489124727937   -5.25517458514030
C        10.90857080176821    2.12098720855933   -4.60502248805959
H        11.31474808060951    2.08227845000339   -5.60545754974215
C        11.75831318669261    2.24648426738552   -3.51621922224175
H        12.82560941294224    2.31532452236192   -3.66618760134971
C        11.24148782173902    2.27626756487090   -2.23541009057357
H        11.90935525596981    2.38148803338221   -1.37796745379165
C        10.06628154728789    1.21363307228448    0.33722962027653
C        10.07967186810087   -0.23162063109165    0.16256321198007
C         9.24844668426417   -0.82537515202004   -0.78901497745777
H         8.60490603796848   -0.20592220619299   -1.39829204072983
C         9.23763451477105   -2.19610968815019   -0.95732582853574
H         8.58654655676228   -2.64039827675219   -1.69674170056144
C        10.05647789542572   -2.99965823659539   -0.18157848084950
H        10.04655108705409   -4.07153221087960   -0.31280119605741
C        10.89060597823848   -2.42014629127603    0.76130980716866
H        11.53501359310154   -3.04163898987326    1.36595776929053
C        10.90645463423835   -1.05029355038916    0.93335543804565
H        11.56335767739516   -0.60469148934577    1.66473503735178
C        10.61480576476214    1.99389230249188    1.27793750748865
C        11.26736191671210    1.72379368877955    2.53857326323577
C        12.62415443219305    1.99493230250216    2.73355846874448
H        13.20534213306255    2.40793433361872    1.92005274769224
C        13.21405869290702    1.74222465862498    3.95569744389822
H        14.26370417157216    1.95378194564661    4.09613923912129
C        12.46262363260501    1.23063031989077    5.00164269805808
H        12.92557566948902    1.04246236610577    5.95904455980493
C        11.11382525576111    0.96837595957318    4.81971712826113
H        10.52437663643780    0.57436556750553    5.63503379056466
C        10.51448640681587    1.21085166456746    3.60013093228132
H         9.46241153824971    1.01097526201801    3.45219941027052

