98
CSD_code = NONCAW | q = 0 | S = 0 | Stoichiometry = C41H43BrN4O8Pd | MND = 4
Pd       15.12975392273652    3.35630323312847   20.95867728035816
Br       15.53248199295656    5.15905426159452   22.52229243806818
O        13.76876844639000    1.79730621736770   24.54536322417311
O        13.07062185079659    3.39858491599894   23.14097471011884
O        11.71370664568112    0.68464249351003   22.49622684742068
O        12.27098903879878    2.07217167199048   20.81760372729443
O        13.52323685446784   -1.49093894818132   19.81088659536864
O        14.83208763524032   -0.54556325691327   18.26112442976871
O        14.52514425736029    2.33100479286663   17.45629810888997
O        16.64428733473035    1.90158185782816   18.09516142862258
N        14.34569135846345   -0.40508166957206   22.49185579357589
N        13.47609401065522   -1.22148296223855   24.45420182341580
H        13.88247256861994   -0.38540252460181   24.87391477188764
N        12.62439188885076   -1.90950743267765   22.34962077674769
N        15.62269486973656    4.67009954622525   19.41789563563738
C        14.73254017377216    1.94600936252874   22.33120895693808
C        13.84173780791698    2.37041488097553   23.47736985008554
C        12.17056662756377    3.86947101149930   24.13293242749570
H        11.33259892168730    3.17428805919530   24.23451922088694
H        11.82756076327825    4.84659970775549   23.80184131234007
H        12.68700423895818    3.95487261373472   25.09051790274867
C        15.91381677301526    1.24137336091207   22.91601016039354
C        17.12945737137500    1.74834581513566   23.32266154268405
H        17.35468205000078    2.80173597587816   23.21025172539926
C        18.04464672721960    0.86443645115798   23.88030264024714
H        19.00843571406224    1.22710285280587   24.20411631922804
C        17.74043143746353   -0.47768337776805   24.01891139703355
H        18.47462880496603   -1.14768953187206   24.44255129965563
C        16.51429273055238   -1.00788784714095   23.61429556075412
C        15.60747365164260   -0.10974321296527   23.07661017304286
C        16.22600516632311   -2.47204476894711   23.74991212702888
H        15.72105533249111   -2.68377142868525   24.69320339766919
H        17.15380312767905   -3.03927209507515   23.73152674804816
H        15.58986366882368   -2.81399768095653   22.93498877053461
C        13.42361987659377   -1.17988009615715   23.11746099888649
C        12.87525731767762   -2.14086544101098   25.32844036913666
C        12.87077785707885   -3.49900673555529   25.03300974048544
H        13.34117550838221   -3.85182608468375   24.12873698100321
C        12.27535700586654   -4.39540019649393   25.89955359310168
H        12.26826193918496   -5.44741847473794   25.66005845213200
C        11.69605478120549   -3.93927175121673   27.07029009158920
H        11.22642401880008   -4.63436718560552   27.74918552752026
C        11.72518613295299   -2.58942386464560   27.37469357128454
H        11.27794858628911   -2.23911633094883   28.29339759767996
C        12.31132061717114   -1.66890340290541   26.51858686475298
C        12.33518920066253   -0.20796087168099   26.84209162241390
H        13.35088702941208    0.12364585696687   27.06170400991592
H        11.71605263966875    0.00070083896480   27.71031508521792
H        11.97653902372308    0.38776665337313   26.00443149760689
C        11.41879137890658   -2.54679356914565   22.69426500183301
C        10.53682414970715   -1.97807311614411   23.60410334004870
H        10.75811164496917   -1.00885429550656   24.01894448578690
C         9.36685767033432   -2.63522242321233   23.93370376269209
H         8.68659331443556   -2.19258287514294   24.64485609543379
C         9.07037298869237   -3.85295271678513   23.34717076249029
H         8.16011279403635   -4.37249312208469   23.60554300839349
C         9.93543207013579   -4.39997167352468   22.41533762540969
H         9.69174209126470   -5.34309156776167   21.94792356381305
C        11.11750360856898   -3.76204440633725   22.07063143430853
C        12.06299249707981   -4.35647945021904   21.07323245829102
H        12.25828655942825   -3.65759643913990   20.26089157741457
H        11.65259851682269   -5.27182339709571   20.65540041068813
H        13.01922571342151   -4.58922285718814   21.54181322275013
C        13.98196444459757    0.74570731854268   21.64933398951177
C        12.51987639307242    1.12075631324983   21.70613950835971
C        10.96293341368800    2.63286473668821   20.80093798701075
H        10.26120230812148    1.95972507952519   21.29740446293972
H        10.68757755816306    2.77262836023991   19.75703396030141
H        10.98389465775460    3.59454679290417   21.31571755451314
C        14.46102688122027    0.66034148999692   20.22096041991892
C        14.21959774463408   -0.54446078460995   19.44914529284558
C        14.58914187885778   -1.66511392696795   17.42770789391879
H        14.92173546853412   -2.58381140260592   17.91739198978251
H        15.15568302537264   -1.49259030107633   16.51646453229934
H        13.52335732003454   -1.74892875765786   17.20300413944142
C        14.97479505212680    1.80563622732086   19.72186587356763
C        15.31311416834464    2.00424598321608   18.32012621618817
C        17.06061887951909    2.16530554174132   16.76904815437820
H        16.53031474885743    1.51698148429841   16.06790726371935
H        18.12935624475056    1.96726540762936   16.73986542105343
H        16.85769376221905    3.20681848053219   16.50402018327677
C        14.64626077345304    5.24616882872066   18.71955523154744
C        14.93150577529599    6.08071117994301   17.64728658260854
H        14.12875873800167    6.53397888983487   17.08764016731222
C        16.25475439537717    6.30987707753147   17.31048674789229
H        16.50432153930100    6.94911980232336   16.47644420914970
C        17.25443296871225    5.71199462700784   18.05908969102221
H        18.29516062913862    5.87875458880140   17.82854892604100
C        16.90353111541396    4.88874240187331   19.12235620204352
C        13.25116389644684    4.91729354702442   19.14518886878498
H        12.98530141757479    3.94405576932214   18.72035780509276
H        12.54296512732428    5.66454826656810   18.79542610398493
H        13.20717830822158    4.84569778598018   20.24535012429620
C        17.92582788315970    4.24442890687151   20.00418302194474
H        18.05187784736602    4.86112500731804   20.89937654287725
H        18.88477169582830    4.16095960579822   19.49881591816538
H        17.58444900333783    3.24355305833519   20.32033641263066
H        12.84893463397404   -1.84133073809488   21.34078072387624

