42
CSD_code = NONDEB | q = 0 | S = 0 | Stoichiometry = C13H20N4O4Pt | MND = 6
C         5.02870349376353    5.98596987602262    1.66435693862666
H         4.69742632788374    6.90541606867491    2.14068457187044
H         4.54321847347222    5.86771151529443    0.69752345804652
H         6.10696565205057    6.02236270577539    1.52471093960862
C         3.37860748096886    1.67123188213097    1.82731192132667
H         2.96641309838961    0.74937148667354    1.41220397043375
C         4.75965318179657    1.96789561757449    1.02796436426725
C         1.60148215699424    6.19405942100076    2.01314264945532
H         2.25057919734692    6.39747756145162    2.86273291364211
H         0.58143019330999    6.48933307075806    2.24400807363012
H         1.94485926037922    6.77651599784044    1.15979948131091
C         1.65299774780794    4.74495257993272    1.70713610361384
C         0.66864684597462    3.93058530304980    1.13168961837407
H        -0.29801486441985    4.23707871612678    0.78928915084753
C         1.19213269043643    2.65499617671590    1.09624621892200
C         0.60048290883039    1.39271639903116    0.58769052932314
H         1.22225165051080    0.96086455520687   -0.19621459537322
H        -0.38280149969010    1.59919382407268    0.17510152599831
H         0.49165168830680    0.65960399055526    1.38724340040206
C         4.99228861124017    2.85253769847867    6.22896164062212
H         5.66144689432736    3.58434176980161    5.77831951573594
H         5.52879022492783    2.25472412307724    6.96081758501265
H         4.19040791464444    3.39286491836243    6.73071097515701
C         4.43366753768957    1.98950801985089    5.16141078508396
C         4.11760181497621    0.62242055846435    5.18678174399819
H         4.23494364592794   -0.05045006621860    6.01104046758628
C         3.63605056590274    0.31574518328972    3.93089832047916
C         3.17407290024731   -0.97607831276522    3.36490575960770
H         2.13499476715305   -0.91522830296031    3.03963458916034
H         3.25167705210222   -1.74878554067473    4.12427326656348
H         3.78760451214577   -1.26430290803157    2.51138639690604
N         2.71330502854916    3.99959860561919    1.98824040696016
N         2.43165262324717    2.73425842379864    1.63338663617548
N         4.15328029227498    2.47367071633228    3.96332186377579
N         3.66386399925688    1.46940370178977    3.22182666308523
O         6.35385746878981    4.57811668083157    3.67324641448302
H         6.96233579194088    4.09981652516119    3.10207074180946
O         5.35739355271957    3.01949952959980    1.34090129474265
O         5.06490206379525    1.12221861460498    0.21865531824300
O         3.89310746192642    5.57782278947142    4.22224597768725
H         4.68309120611375    5.82192677261737    4.71689962906810
Pt        4.58047838598808    4.36223375161107    2.82244277373095

