51
CSD_code = NONFON | q = 0 | S = 0 | Stoichiometry = C24H22Cl2NPPd | MND = 4
Pd        6.66267400008767    0.04312922712993    3.19283309884262
P         5.12706062392893    1.70136491841084    3.43173029781896
Cl        8.01327816145445   -1.77708953518435    3.38835996285814
Cl        4.98695799869298   -1.21148993034406    4.02553368526004
C         4.04523818065796    1.57422719594868    4.88176218249907
C         4.05562012905182    1.75838014767426    1.96824914166088
C         4.14882253686612    0.68896190978034    1.08076598837258
H         4.83038405080140   -0.13815524353897    1.30449294352067
C         4.70404297738382    1.34702737142907    6.08876527074985
H         5.78581831241062    1.22914376364120    6.08451516376708
C         3.37899277012905    0.67866904243091   -0.06812726685699
H         3.44593494568979   -0.15137732735467   -0.75509528411945
C         2.52325468177864    1.73526593400782   -0.33717070558055
H         1.92312728006539    1.72825503347226   -1.23488070604638
C         2.66119609090602    1.66341285198062    4.84879265390033
H         2.14734000803992    1.80678301194509    3.90888758714305
C         3.20289717459763    2.82320299360965    1.69153555278415
H         3.14809215795724    3.66295580226233    2.37179460626965
C         2.43678744579741    2.80523734091372    0.53984182122374
H         1.77251577565742    3.62927888262318    0.32364869404775
C         3.98241177087742    1.23264465293274    7.25943987159078
H         4.49050230459560    1.04949954517968    8.19440964130742
C         2.59928140485597    1.33685360339856    7.22813646038623
H         2.03186704014749    1.23926276561967    8.14170995831806
C         1.94298454152235    1.54472669890392    6.02733016392738
H         0.86477486688134    1.60612877449112    6.00440346473883
C         5.69126227136608    3.44154417016521    3.58626058159840
C         7.37938583510076    5.06924244376165    2.98177151049679
H         8.28503948816708    5.31331173180575    2.44710037825449
C         6.86375836185763    3.78700531684313    2.90606636775540
C         8.26502180551328    0.72662359792245    1.67444753946828
H         8.95173415405636   -0.10676285816048    1.67805609738006
C         5.56943054258803    5.68689384999334    4.43455952640382
H         5.06599924321764    6.43015277750508    5.03436444808761
C         8.89092143581949    1.80188801730491    3.98209526571937
H         9.18135272375611    0.80434103876600    4.32633507983036
H         8.28430123545547    2.29096655934448    4.75015985407826
H         9.79559589639732    2.39641783909258    3.83780990548574
C         6.72457294078533    6.02104223982700    3.74698979703570
H         7.12082424434148    7.02290371986139    3.81065131545022
C         6.38150041900985    3.47096706802260    0.00961378506171
H         5.49814362672586    3.83955840804760    0.53086590576528
H         6.06890380309240    3.00057937914406   -0.91772729517017
H         7.01308660497184    4.32757694441257   -0.22916824852270
C         7.60995383776719    1.24981272041515    0.52369814601729
H         7.54018866479173    0.76904783014479   -0.43336187334168
N         7.48619600173510    2.77695139830745    2.13731908887129
C         8.13501340498572    1.68290822170833    2.69105903763034
C         7.12692473761315    2.48861895182924    0.84076304048024
C         5.05528062063584    4.40300563643099    4.36156771561726
H         4.15945086941321    4.14370356614356    4.90803878216172

