71
CSD_code = NONFUT | q = 0 | S = 0 | Stoichiometry = C23H41N3O2SiW | MND = 10
W         1.67324427099308    1.60087896300783   11.10493350301356
C         3.32935730332206    1.46055360131939   12.16442940144729
O         4.26415664328766    1.39539328425428   12.84637688161587
O         1.42408817441513    4.35165542862550   12.57471495888661
C         1.82445665424547    3.60273751592644   11.72072307905501
N         2.62070124840574    3.53000494047425   10.71543372557026
Si        3.81875826260084    4.65246483961378   10.17030476822016
C         3.10425635430261    6.41226243903642   10.38203696282649
H         2.34851174083415    6.63524358323729    9.63408433362607
H         3.87911495008578    7.16815616064532   10.30447054350377
H         2.63843221404796    6.50948928942253   11.35803659996727
C         4.19708525307608    4.32397063414424    8.32683140372032
H         4.51721802110133    3.30105352745820    8.16087890692079
H         4.99220492835773    4.97834708938972    7.98525752847229
H         3.32810558530002    4.51096755069632    7.70390005734076
C         5.41082146677750    4.46619347593645   11.21619041738112
H         5.21716981841482    4.72375582449400   12.25340085555345
H         6.20055650235159    5.11752511923147   10.85481492591360
H         5.78911600215741    3.44779645144387   11.20275193123325
N         0.71626299059563    2.27206681466811    9.21936144071667
N         2.55355959771269    1.08891942012582    9.18581930617833
C         1.67074926541074    1.74577320481177    8.46508625827582
C         1.76154868405719    1.85650410861936    6.95940423815062
H         2.68217080365622    2.36562122853694    6.67904633985579
H         0.92458278889103    2.40367077195173    6.54081007330706
H         1.77795809339337    0.86043283487158    6.51917643635280
C        -0.13609415485889    3.32185645011400    8.68982558293769
H         0.44737498090998    3.93275834468086    7.98092769001085
C        -0.58681357833555    4.24984532234129    9.81680191836869
H        -1.05825446012851    3.68014357821336   10.61265060899928
H        -1.30049109822931    4.97656477546880    9.43325657439521
H         0.26205631918793    4.78405529841132   10.23324690601071
C        -1.37024174006663    2.77537106040422    7.94559525430553
H        -1.11864737468507    1.89689721500443    7.35513605212613
H        -1.76566618882681    3.53851356329060    7.27823430130010
H        -2.15265978688201    2.50324792075496    8.64721871884411
C         3.67799166248655    0.38395002663313    8.62048536090862
H         3.97678058186774    0.84623349396516    7.66676188392724
C         4.86344994253101    0.47229829719912    9.58035806542543
H         5.05748311728797    1.51270062424336    9.83157845393562
H         5.75243988800841    0.04291059652025    9.12334404216097
H         4.64143865389570   -0.06968634410657   10.49586111776299
C         3.33173587867396   -1.08705693713770    8.35264767149316
H         3.10180189784145   -1.58401205794709    9.29106707563454
H         4.17354170748312   -1.59307194110179    7.88605600319952
H         2.46839450109863   -1.17057100319550    7.69629959655575
C         1.06505340772650    0.82317911476215   13.18358536305948
C        -0.12074998125662    1.42811903523684   12.65248125902449
C        -0.50023363958720    0.69161851612369   11.49735735555631
C         0.44059085374497   -0.36443786207891   11.29018496805092
C         1.40394024689490   -0.31581848876891   12.34342893984343
C         1.57451283883872    1.10470846980958   14.56723918847059
H         0.90222789895016    0.66135585942520   15.30551001665297
H         1.61391290360966    2.17891090775638   14.74191125099331
H         2.56853102996520    0.69232180606357   14.72445126474999
C        -0.91338661017959    2.47937143099912   13.36525597980947
H        -1.84527803692261    2.69309856958273   12.84747144839786
H        -0.34051630836619    3.40483073601295   13.44468328260484
H        -1.15207726852005    2.14309540102509   14.37495780518894
C        -1.81565961601683    0.75348166304651   10.78631020584538
H        -2.48460073603423    0.00121138827201   11.21279249896443
H        -1.69608575901218    0.53377671338355    9.72787726316828
H        -2.29098671670526    1.72490850810069   10.89588733192238
C         0.23005921241930   -1.48804740659966   10.31510095783942
H        -0.67628904322023   -2.03993085012157   10.57406756600732
H         1.06457492216282   -2.18406731302099   10.33274939526606
H         0.11573210894002   -1.11242847010823    9.29791246662703
C         2.34530053417549   -1.42547332930132   12.71676192757365
H         3.15484734078697   -1.06133414705319   13.34570361975922
H         2.78486611270326   -1.88668107650249   11.83395383449890
H         1.80760593785100   -2.19765556174489   13.27183705471865

