71
CSD_code = NONGAA | q = 0 | S = 0 | Stoichiometry = C24H41N3O2W | MND = 10
W        10.19139793260785    8.66673667641887    1.77010029862754
C         8.70159356611952    9.32753923124310    0.66400195321058
O         7.80145914719620    9.78399851208473    0.09165229020430
O         8.29025571380366    6.22067567186826    2.33641564496204
C         9.12159994100657    6.83733681326164    1.71046522486761
N         9.81616681841260    6.84145607693350    0.64177664173065
C         9.63855204713900    6.05405184992758   -0.57002877850147
C         9.61009223607207    4.57044231113137   -0.18054937374039
H        10.55822298044690    4.28199042638833    0.26822404661725
H         9.43206241588904    3.95199580852247   -1.05682512217148
H         8.81745128719932    4.39693135959841    0.54274437986189
C         8.31026861064537    6.44663151821219   -1.23053786826657
H         7.49039390551148    6.27102040629880   -0.53792255349325
H         8.14323421978633    5.86192766550231   -2.13210343746862
H         8.32076148223619    7.50305075384000   -1.49172184081349
C        10.80368845716520    6.33249220652540   -1.51972524901371
H        10.84083595106573    7.39380853942000   -1.75181032329503
H        10.68104338295496    5.77011007147841   -2.44270070584582
H        11.74255999992813    6.04384292164368   -1.05339402514721
C        12.59021635069732    8.06301574411429    0.81818700088456
C        13.89572846635815    7.65719076356373    0.17323670859881
H        14.71657957429403    8.24354852290697    0.58548702000607
H        13.86321132388518    7.83010001045343   -0.89945464232949
H        14.11219284650870    6.60660870695425    0.34773675589369
N        11.79706281167645    8.99694876248840    0.33285040526623
C        12.11555714302040    9.80676245402846   -0.81875563615359
H        12.52917732198862    9.18024480615395   -1.62861966781098
C        10.84008673353489   10.46181847469913   -1.34374967595286
H        10.10856056249972    9.70386006092107   -1.61258019396325
H        11.06047936066400   11.06364888394927   -2.22270809100257
H        10.40825755948133   11.09989372602484   -0.57723895129270
C        13.14997850553418   10.89145753715222   -0.48474182909683
H        12.73570095703485   11.58759792331427    0.23864860307069
H        13.41659164821734   11.44153201715903   -1.38421363782393
H        14.05300860219922   10.45441171426417   -0.06744035029188
N        12.09993187589402    7.53113522075782    1.92854103195958
C        12.62687484949831    6.28241285628575    2.44582165936904
H        12.84151716570279    5.60214283912537    1.60200745483801
C        11.58773921375297    5.58771176822553    3.32357823794289
H        11.30327320116230    6.22566718569927    4.15356787919622
H        12.00190592761168    4.66243304383557    3.71988393711154
H        10.69686106848813    5.35041091012604    2.75090205889071
C        13.92959443837950    6.46369800532832    3.24503746541943
H        14.63112285623253    7.10598146317251    2.71956857317107
H        14.40045065035024    5.49531134284502    3.40112555839654
H        13.72368012524518    6.90120657953789    4.21742296542533
C        10.82618593183201   10.45863636802033    3.13299205950046
C        10.80201671586385    9.31510827781788    3.98471975952683
C         9.47614142241978    8.79415265173920    4.02049180127628
C         8.65959505286387    9.63063479219070    3.19310832165380
C         9.50001503791423   10.69019956669304    2.65391567342239
C        11.98627658097398   11.40744881757973    3.04528887203185
H        11.81046990971087   12.17310465874497    2.29348549599229
H        12.90814718114752   10.88168907070241    2.79702919209299
H        12.13162451260109   11.90634207861365    4.00644236334945
C        11.93478774131529    8.97863329391260    4.90296476729112
H        11.98886498911775    9.73385466766122    5.69147741003585
H        12.88294884801349    8.98588347783517    4.36869191677890
H        11.80262790616687    8.00918368193811    5.37615703959227
C         8.92436243399746    7.75461890372782    4.94516878379777
H         8.16548445741871    8.19984808218033    5.59007397753100
H         9.69965543133636    7.32748769388228    5.57625887049900
H         8.45307544799001    6.94944576308386    4.37921216110398
C         7.16017298394013    9.60625979481215    3.23153862044284
H         6.80106023098960    8.57988887365124    3.17175785151910
H         6.72638782984856   10.17386013095363    2.41146078111727
H         6.80649666670439   10.03983302912073    4.16983635736314
C         9.00081031628551   11.98619914615723    2.08288042718886
H         8.75916697292540   12.67452732691187    2.89605342145522
H         8.10122214449201   11.84253413315930    1.48777598305702
H         9.75212201905462   12.45873557549775    1.45245625035498

