65
CSD_code = NONHUU | q = 0 | S = 0 | Stoichiometry = C24H36ClP3Pd | MND = 4
Pd        6.50296964045798   10.45009230301945    3.56643925603845
Cl        8.02245183994332   11.41600513406611    5.01933092286677
P         5.00985988528831    9.17933221632408    2.43425690470917
P         8.08377675364645    9.35035630716041    2.43729506590208
P         4.70169227412260   11.60582780216211    4.25087786031156
C         3.73295814067750   10.38448145999701    1.97432522694719
C         2.88838607118033   10.28134761216782    0.87042228353746
H         3.09174850560146    9.55368156961438    0.10146075650562
C         1.79652632936917   11.11781261104211    0.73129885834240
H         1.16578429525755   11.03125875808525   -0.14185844360691
C         1.49713232672296   12.05023041233965    1.71036267502917
H         0.63018244866838   12.68649626386512    1.61204820349518
C         2.33018795748301   12.17757607476951    2.80967590296954
H         2.10334055546280   12.92173213921278    3.55973149868344
C         3.45155160436688   11.37323978515991    2.94114276519976
C         3.98791417293018   10.99064260621570    5.84755810949613
H         4.61758428890587   11.43504539423996    6.63034828311643
C         4.20798048760998    9.47721003453418    5.85552070294547
H         3.92968582554207    9.04809712434033    6.81677344740668
H         5.27118115342524    9.25492932527811    5.66848121330518
H         3.61091947345265    9.00068587034669    5.07506494155021
C         2.53085214093196   11.36887050105236    6.07511120842654
H         1.89824494824611   10.93904941656167    5.30024161236321
H         2.40284445798581   12.44996494390824    6.07142208243305
H         2.19516855167463   10.99111503450762    7.03990215987072
C         4.85795745553014   13.45135215966434    4.35396493114949
H         3.86782172436381   13.91393762561510    4.26415469735673
C         5.52556386196676   13.88964966644757    5.65212277731295
H         6.44074354051096   13.31975162183371    5.81258588563647
H         4.86626823006857   13.75056838880545    6.50689072764487
H         5.78860899691082   14.94489102817029    5.59455071378595
C         5.71668191666600   13.82450428590011    3.14453369980151
H         5.81429436047627   14.90450937111223    3.04794462285279
H         5.27722693460593   13.43061643692667    2.22304336893518
H         6.71753770967436   13.39893554231370    3.27752546708033
C         5.88872605510440    8.57755232465418    0.95885719372897
C         5.25203807977657    7.91875408499487   -0.09349308802191
H         4.17389231216465    7.88719789201756   -0.13482851870323
C         5.98232364806208    7.27168894534186   -1.07168056524033
H         5.46952418886940    6.79005418524244   -1.89187701022928
C         7.36382212591356    7.19884617558185   -0.98334562021374
H         7.92978669104345    6.66634984167222   -1.73340038476970
C         8.01265152626022    7.79390143319383    0.08398237874151
H         9.08462466233542    7.70036575408743    0.17862256986006
C         7.29224153238907    8.50518447334632    1.03363867130238
C         8.97641862882614    8.00031028030710    3.33173834198448
H         9.39383065715227    7.28584125943720    2.61052050834588
C         7.87128521267864    7.33212119995884    4.15400244866072
H         8.26417876750190    6.51322962462359    4.75394252126075
H         7.08588359863450    6.94295215796258    3.50101645394008
H         7.42437743552703    8.07714610961270    4.82959412638600
C        10.06746265422177    8.56526675095061    4.23389481246382
H         9.66299287883118    9.36951486239931    4.84869207329120
H        10.89972282662430    8.96017775984180    3.65480514468454
H        10.44809150020234    7.78714236535508    4.89390255380233
C         9.27484218266480   10.58007712868148    1.72668747367220
H         9.72528554814130   11.03968763590670    2.61922504286530
C        10.37233900487265   10.05640330389981    0.80976804778462
H         9.96108441194834    9.75228697787812   -0.15034790603664
H        10.89560995123359    9.21184309171259    1.25456979651487
H        11.09975449691568   10.84646784391116    0.62729554559290
C         8.39587959013842   11.62135862722662    1.02862366979489
H         8.97118569380954   12.50872701545609    0.77092748588973
H         7.56989731202099   11.92035809075828    1.69703700593851
H         7.96521796641176   11.20649597724692    0.11597883731634

