90
CSD_code = NONHOO | q = 0 | S = 0 | Stoichiometry = C33H50IrNO3P2 | MND = 5
Ir       14.66984124733649    7.22741253921922    9.58492257107714
P        14.54853194337553    9.25882935268736    8.29968862256969
P        14.01482655293184    7.42973938934403   12.01729739585271
N        15.95380457845433    9.45676674085142   11.08678035464647
O        16.17558631979390    4.66904601919949    8.83867932132892
O        11.93713580382759    6.05106061035986    8.93713712588983
O        17.21405475611505    7.49028840538646   11.03793580065452
C        15.43786411822896   10.62139217436391   10.59220412052131
C        15.35246227569824   11.75897569472403   11.41987669801637
H        15.63020097379543   11.67915061135205   12.45874586108581
C        14.91223319699562   12.97165135548415   10.95324511098070
H        14.87864853741766   13.81795731781072   11.62475328382961
C        14.50678278436042   13.12674417166499    9.62959720407412
C        14.48786762087205   11.99783124043399    8.83639851306298
H        14.10135670367154   12.09627070620281    7.83335693593316
C        14.92699622594628   10.74665076832044    9.27616480272150
C        14.06823805717020   14.46349107417344    9.11137127705740
H        13.71353272849867   14.38686909149722    8.08612245997477
H        14.89613543339060   15.17220841595619    9.13808374661403
H        13.26550676248736   14.86777126365176    9.72738116797916
C        16.05509270343531    9.24132929114586   12.47854492254646
C        16.98506361123038    9.92806952054091   13.25006499710298
H        17.62886054124786   10.65904186206780   12.78265174080689
C        17.09623342012024    9.68144049804796   14.60560116626065
H        17.82420108462831   10.22700913680821   15.18961370491236
C        16.29493502505953    8.72835156789400   15.21788850746982
C        15.37143216995793    8.03974936212885   14.44257062243326
H        14.76054987716128    7.29267267456474   14.92675399868260
C        15.22805223521111    8.28760773430882   13.08331393181978
C        16.40250543235856    8.44993188648669   16.68724622622304
H        17.33233758074944    8.84365434206909   17.09002970328531
H        16.36037962632221    7.37988500531461   16.88125526459146
H        15.57484698414403    8.91917768048822   17.22046103843633
C        15.88304163534406    9.34759238106421    6.96179962125173
H        16.79398103975220    9.55089988401616    7.54177837272114
C        16.07395144812574    8.01351691270071    6.24719084869620
H        15.25469241515884    7.80775035360933    5.56424845143243
H        16.12555610464103    7.19974369836759    6.97037591433651
H        16.99915105947977    8.02716716135430    5.67239004712916
C        15.72680256599577   10.48513988156001    5.95800047204402
H        16.59799091708066   10.50253987386012    5.30333125634684
H        15.66881216904673   11.44837953782883    6.45845038945064
H        14.84717208891713   10.35151737635517    5.33316462030361
C        12.97876857198004    9.71615479979803    7.39002407522685
H        13.12632120447321   10.64829044538962    6.83688955666634
C        12.60123787128522    8.61736285683981    6.40149362933562
H        12.66158003439212    7.63869965540170    6.87354020337479
H        13.25592397650651    8.61937153995827    5.53384720619768
H        11.58055891541678    8.76626192323506    6.05122316970179
C        11.86795418472935    9.91764306164247    8.41489274718390
H        10.92800459587285   10.14895389390577    7.91577402279440
H        12.10730241859210   10.73693121844602    9.09103287103010
H        11.72980003463234    9.00999208025707    9.00103901906071
C        13.92871378143867    5.75719661269530   12.84187256964981
H        13.64806978350737    5.89067829341280   13.89164921939087
C        15.30030530124958    5.09677483367652   12.76563197225732
H        15.27294776446493    4.11036196294394   13.22657845405925
H        16.05530042609611    5.69906350679195   13.26611850996894
H        15.60056150368600    4.98734179307428   11.72514747133187
C        12.87692597240764    4.89039991126440   12.15943885859437
H        13.15295351762642    4.71861507125186   11.12003150746472
H        11.89529462741753    5.36042297293492   12.18297154776530
H        12.80552089994109    3.92372451019128   12.65621797762952
C        12.41062925101459    8.25248125007336   12.55052089453492
H        11.64729992895701    7.79173941305230   11.90922488747716
C        11.99924625778285    8.08755537049131   14.00809672073277
H        12.75633224938999    8.49941350205773   14.67186159607121
H        11.82414685934595    7.04613872577286   14.26608400534884
H        11.07123192423411    8.63239363026137   14.17947749638060
C        12.51173167946938    9.73235209578069   12.19297074361270
H        11.53968531773316   10.21652089100928   12.27196893901296
H        12.87541988222509    9.85590750938359   11.17388081391809
H        13.20391171339732   10.24029928364455   12.86317463881671
C        13.00348838095962    6.46926776187174    9.11305567816988
C        15.70893750952977    5.67129466235560    9.17884064205611
C        16.36404883664376    8.30251323363243   10.24705077840654
H        16.96265480823792    8.76592160470963    9.44104874239665
C        18.62339838241100    7.48636801057183   10.80688317608886
C        19.26193087812618    8.87093387623084   10.97035341800180
H        18.77069228077501    9.60929161567653   10.33985550636989
H        20.31111081956156    8.82504448048192   10.68903970065027
H        19.19213431273901    9.19285000324795   12.00556167379232
C        18.95631443429460    6.92217488539001    9.41807279713917
H        18.48362185743005    5.95278753670811    9.28854009553276
H        20.03193203891650    6.80291667162987    9.31618872692355
H        18.60754131951266    7.58324150985564    8.62800650026580
C        19.16466016101466    6.54281693598402   11.88512735560446
H        18.88038749668047    6.91163319319618   12.86784021931362
H        20.24738492337844    6.47657781411513   11.82574368604968
H        18.73593275500193    5.55324902438772   11.75364778651116

