107
CSD_code = NONHII | q = 0 | S = 0 | Stoichiometry = C35H65IrN3P3 | MND = 6
Ir        9.24355242933082    4.18013626938567    2.29293720205270
P        10.66973187993369    3.42816893809457    3.97753371087906
P         8.68965684388725    4.55495354719205    0.06499429155667
P         9.17298046078201    6.51436362157839    2.87140911474568
N        11.23690746032753    4.79278873894598    1.57974560799228
N         6.52827773167815    2.70460460680582    2.48572886855619
N         7.00233986766244   -1.01204985236659    2.33763826226001
C        12.14004773776364    5.16882581193215    2.52131697649044
C        13.12241311960436    6.16236676160820    2.34266938416745
H        13.20662226389111    6.66033956982056    1.38672878242879
C        13.94956565352827    6.54283298636425    3.37464888798018
H        14.68598754171271    7.31676319266957    3.20243781809088
C        13.85538961270042    5.96758228019669    4.64014320934207
C        12.87365274214592    5.00973476265843    4.84588502915753
H        12.76835044736781    4.57375330520117    5.83029132928659
C        12.02428029480218    4.61695882660297    3.82388461438695
C        14.78320029172909    6.38790162167855    5.74177859094829
H        14.48437152047781    5.94754285212936    6.69068038034917
H        14.78940329511485    7.47261484895759    5.84827184082664
H        15.80365361424348    6.07081656921441    5.52297796561597
C        11.44045679237724    4.87979084145590    0.24448312312977
C        12.72218270966504    4.87825903731083   -0.34537305486238
H        13.58729298625951    4.76009271697705    0.29097293579276
C        12.89332462921532    4.96996434303554   -1.70377465824622
H        13.89388469315539    4.96247056374795   -2.11501319124825
C        11.80172314867767    5.05641038650523   -2.56781042995210
C        10.53667660075847    4.97643499543129   -2.01557644402554
H         9.68347865694327    4.98249124161791   -2.67624247003925
C        10.33186670459030    4.87730954374587   -0.64304595113423
C        12.00701535823153    5.18052753893281   -4.04888550113690
H        11.05393302295464    5.22229541602956   -4.57181339572044
H        12.57366776233908    4.33072371664014   -4.43018951032234
H        12.56900865454677    6.08493438171032   -4.28313073240573
C        10.33501028858097    3.22415809298657    5.80858179555017
H        11.28234853536011    3.02830621894651    6.32097169022510
C         9.38931405500786    2.04683683341172    6.03063394927358
H         9.17062049341913    1.93806217617026    7.09284308520844
H         9.81788391585505    1.11265227409964    5.67669990663788
H         8.45350615075253    2.21365553878192    5.50294155822341
C        11.55901245748721    1.80858040655688    3.60690000496564
H        10.77786505451916    1.03957649291225    3.57061306777420
C        12.60887601433043    1.43502615342767    4.65176145796566
H        13.18624271628220    0.58365829469851    4.29271082662018
H        12.16761324191513    1.15416992506385    5.60437221319072
H        13.29811199198085    2.26333235744845    4.80887483047211
C        12.22652500554429    1.87403510840593    2.23664021405197
H        13.06023997119296    2.57335868801619    2.25413289301280
H        11.52382529403819    2.19820971621117    1.47409815142101
H        12.60890340768125    0.89207596083103    1.96010346193411
C         7.56945880375572    5.99527147979941   -0.40347383917438
H         7.85604537233982    6.74440862969240    0.34479563167562
C         6.11608409435919    5.61846791152509   -0.12130185896751
H         5.51752125226456    6.51252568947082    0.05680400108635
H         6.06910320153190    4.97647065065519    0.75525181311000
H         5.66668938579456    5.08467681667736   -0.95341692103848
C         7.74526385258445    6.65713965850464   -1.76548277545760
H         7.48619426946124    5.99172273936350   -2.58322208079452
H         8.76965944884656    6.99749553641225   -1.90188510913816
H         7.09030382647734    7.52747302826231   -1.82340801631004
C         8.04891530269040    3.05988097449015   -0.88439681157266
H         7.26453074785464    2.68755942946798   -0.21167136519930
C         7.45233636702529    3.24571602931218   -2.27791791902961
H         8.20676198199082    3.55625471595330   -2.99606594264830
H         6.63324181269207    3.95609026785536   -2.29423381416191
H         7.05932466460372    2.28597001595731   -2.61463586164002
C         9.15739996324616    2.01338862098143   -0.97109901241753
H         8.75349911545853    1.06947921327528   -1.33498169662827
H         9.60382086647434    1.84552737311203    0.00551455845152
H         9.94036470255393    2.33880625952066   -1.65396306767461
C         9.72374946724728    4.49908454721365    6.37324966702487
H         8.84688744124090    4.77875625988132    5.79047814811793
H        10.44145212700754    5.31505251300124    6.34523598017095
H         9.41663791849674    4.34797338210175    7.40804417586960
C         7.28822066162100    3.78659817097552    3.08602722869238
H         7.34909081964526    3.63776354343648    4.18336389558709
H         6.69152410155564    4.69581840937854    2.94359166747163
C         5.09498722002066    2.87499073498667    2.62328440781881
H         4.57846923456143    2.06394994749765    2.11190554250536
H         4.78517972367899    3.81459882169748    2.16718268802391
H         4.76880799350376    2.87844215927801    3.67719631969732
C         6.94616860284549    1.39129452021817    2.95118128376277
H         6.36109504685187    1.06230112515526    3.82512029386759
H         7.99303091086396    1.47197403321679    3.24131192609110
C         6.81551886762064    0.34411586815073    1.84335042006855
H         5.81061448889178    0.39795714349920    1.41869428547734
H         7.53487082850218    0.59002081495360    1.04584377127379
C         8.35585926401114   -1.24173045689592    2.79989121213810
H         9.10866542536369   -1.03501459783180    2.02215557301575
H         8.45257719576421   -2.28109513744165    3.11151925254494
H         8.55755161622993   -0.60655237782637    3.65902257501401
C         6.63703569412910   -1.98160423592078    1.32573524526065
H         5.59719878785842   -1.82888787951738    1.03938135620463
H         6.73692845153270   -2.98480427602353    1.73867591106131
H         7.26273138585425   -1.91179935898622    0.42094425992347
C         9.98396393869619    7.62441895945078    1.63953683992377
H         9.52780169210215    8.61445455569778    1.65477722213895
H         9.93319817141879    7.21358058328744    0.63390354943012
H        11.03461156711264    7.71041909340044    1.91298320641094
C         9.94605655804086    7.29044879066413    4.35595741660162
H        10.96940602650648    6.94181586335731    4.47409270232955
H         9.37579605830570    7.03856355507523    5.24648964418842
H         9.95165389678356    8.37415261559656    4.23301064560821
C         7.52868219487895    7.33217004269183    3.07915012046947
H         7.64735881741774    8.41037068364401    3.18548758989765
H         7.06696425993309    6.93575558481902    3.98241175820870
H         6.87008607135308    7.11996673276359    2.24181935263642
H         9.27845331835636    2.72675600523799    1.86250125950312

