74
CSD_code = NONJAC | q = 0 | S = 0 | Stoichiometry = C25H43FeNO2P2 | MND = 5
Fe        3.96296010112692    6.90463847801818   14.79423980127916
P         2.50904598968030    8.29485618483694   13.89441615734444
P         6.02256995205517    6.19113025887698   14.49614053705586
N         3.64142376709720    5.82340417024254   13.16906229645397
C         2.69969343091552    6.12359923105329   12.24493418595582
C         2.32073852548402    5.23393680912563   11.25712072589939
H         1.54330514532243    5.51320945446307   10.56219672018370
C         2.95156083426323    4.00339366807153   11.15416255427073
H         2.65412899114440    3.28233721617803   10.40993651937205
C         4.02290056978875    3.76201624693048   12.00290462647623
H         4.60578235139033    2.85787750068874   11.91173865471419
C         4.35239749215638    4.68796012315090   12.97312923473484
C         2.18753917809917    7.53036961844373   12.23770715530027
H         1.14584338012381    7.59700387483936   11.92066800276039
H         2.79824158844049    8.07432753625654   11.50576925074205
C         5.55157858979844    4.50670763836354   13.84576001761836
H         6.34728427960487    3.97034457171298   13.32364709723735
H         5.26312748313449    3.93197536505229   14.73321167771470
C         2.79262885189714   10.12189939060444   13.39943081315824
C         4.24502115020359   10.15189836425618   12.91671011389147
H         4.56218111212869   11.17647314146095   12.72816864514139
H         4.37580762720002    9.58606809173538   11.99562677073348
H         4.89207526613903    9.72305616236165   13.67962050650012
C         2.70473656800741   10.98172285276286   14.66006414600121
H         3.13672991186879   11.96479951711004   14.47289414919529
H         3.26111070182069   10.51591995811750   15.47221901143380
H         1.67535542456065   11.12728786335201   14.97733787760006
C         1.90713871430247   10.70440842111420   12.29784590042914
H         0.88482453569263   10.85331052728609   12.62469475245720
H         1.90033044067598   10.08059471337435   11.40723397337251
H         2.30565449233513   11.67864323353929   12.01322438474201
C         0.76006324937527    8.16242530591688   14.66730040544905
C         0.90285904437428    8.42441708234251   16.16667063756302
H         1.20551509523885    9.44762701268514   16.37121194489007
H         1.65402980073839    7.75646307044626   16.58782822117416
H        -0.04431190541895    8.24195801651734   16.67329131748144
C        -0.32149797642914    9.06752712973490   14.08236704566488
H        -1.28842253511608    8.76264228610426   14.48367140202521
H        -0.37257747422825    8.98606124877109   12.99851241018885
H        -0.16811891713594   10.10734791297880   14.35669189533184
C         0.32149013609915    6.70575713880455   14.47739347574087
H        -0.48502175472943    6.47001755952126   15.16995386774081
H         1.14984265042881    6.02791964973394   14.68507193708979
H        -0.03959646710850    6.51504117302208   13.46905590074167
C         7.18840965732548    6.85479875763032   13.11492994035611
C         6.30790517666950    6.90123131848858   11.86314087504765
H         6.81553929358817    7.44304888707134   11.06528122041308
H         5.37428110187072    7.41767171512842   12.08726213072878
H         6.07627288584008    5.90227543332810   11.49642593110875
C         7.55524757539768    8.29407217800043   13.48875101569042
H         8.45228594937166    8.33975004212456   14.09816362824240
H         6.73806711212882    8.75047967528155   14.04808771435666
H         7.73004815429108    8.88989163180698   12.59418852424025
C         8.44656604199465    6.05557751449926   12.79107590022289
H         8.91084377266687    6.47896357189058   11.89952425290503
H         8.21910416053739    5.01258244990326   12.57891455536195
H         9.17668860316848    6.10680610862791   13.59412097927346
C         7.11515363479859    5.67076489547583   15.96570860309127
C         6.16419661235906    5.36330634874462   17.12555035689386
H         6.73613772974900    5.04316566198836   17.99582719417961
H         5.46513027216140    4.56848006224121   16.87385015662103
H         5.58988148246160    6.24558782635926   17.39799300485366
C         7.99330804803019    6.84994320619119   16.38493434880309
H         7.40678389404813    7.76726641716633   16.40855723950013
H         8.83503505510737    6.98168659029357   15.71071034518318
H         8.39170921008869    6.67788216288401   17.38455707031385
C         7.97748642233614    4.42863085246502   15.72626405764948
H         8.60441958333615    4.51740397160343   14.84677696697296
H         7.36625922920199    3.53478301489361   15.62831377437885
H         8.63021011808155    4.28714517352273   16.58778189046036
C         4.33167099666361    8.00393665717764   16.09079560997620
O         4.57306698831521    8.73970954131832   16.95490475476527
C         3.20160163572748    5.72998333952563   15.89568112268440
O         2.74892021013497    5.00290022440584   16.67319011488006

