72
CSD_code = NONJEG | q = 0 | S = 0 | Stoichiometry = C23H43Cl2FeNP2 | MND = 5
Fe       10.85893295874904    2.26447623802116    3.60699643393792
Cl       10.33346520136204    4.02836232210634    4.70787189914271
Cl       10.78375782052091    3.15974056325522    1.61767963001755
P         8.81126305599270    1.39985089924424    3.59847540759550
P        13.00238607716002    2.71414327652803    3.79272061466114
N        11.41951891103507    0.64886014121065    2.74037236568161
C        10.58888556751546   -0.40165474627555    2.58086341443235
C        10.90424005426427   -1.49050326620497    1.78885747171283
H        10.19331264619910   -2.29584200599285    1.68697931854581
C        12.12821767025417   -1.53929500757685    1.14191470208619
H        12.39365104842403   -2.37215937326990    0.51082460128049
C        13.00385713436332   -0.48678207982983    1.34672470709188
H        13.97856946365670   -0.48177022588312    0.88371384052435
C        12.62678315280959    0.58376822545795    2.13959654892408
C         9.31749540661102   -0.37402284468288    3.36307753792180
H         9.53168899151299   -0.78741293659743    4.35382167883831
H         8.54462463677615   -0.98723636411971    2.89934777829607
C        13.57751432364595    1.71972284503861    2.34687489551997
H        13.48238804147497    2.39663742679551    1.49108769160251
H        14.61051723391600    1.37050020436170    2.40783656709418
C         7.98952796862085    1.28500178409411    5.31190340519581
C         9.16281654362165    1.15349132077595    6.29377824340815
H         8.80100071377977    1.23621392904227    7.31760256413750
H         9.88452068756275    1.95500625529037    6.13104711997399
H         9.66942457914102    0.19263395186396    6.20170661995599
C         7.26828365832473    2.60083185359705    5.60103595078814
H         6.37199757802745    2.70360014112962    4.99428257985587
H         7.92969100581829    3.44305586764845    5.40571955847366
H         6.96895786547513    2.63907858769947    6.64809407955432
C         7.03855106144510    0.10746060716243    5.53342291715525
H         6.79039649587598    0.05785968297294    6.59388657591223
H         7.48626867746345   -0.84385911543077    5.25560604703995
H         6.10994959402094    0.22495282203054    4.98650509761937
C         7.53162791435909    1.65095402594858    2.23100001146320
C         7.33347476014403    3.16287921624967    2.10347453800943
H         6.65602980412049    3.38470187663738    1.28036579038859
H         8.28776186179423    3.64355010405257    1.89996224203023
H         6.92150304320093    3.59228967178725    3.01297876866602
C         6.18978666629623    0.95536306257115    2.44935518329331
H         5.62417558369334    1.42022263110899    3.25242843737791
H         6.31484041605648   -0.10439987832781    2.66444204059088
H         5.59825476328837    1.04217617444208    1.53812553925788
C         8.16037454426572    1.12532684929300    0.93620421741219
H         7.56908589034746    1.46289697137058    0.08662133248509
H         8.19390643102413    0.03807723921875    0.90918143839064
H         9.16827968207713    1.51596211834479    0.81399868876704
C        13.68015774669370    1.78762511715505    5.31669510438349
C        13.12483323876801    2.46560531500465    6.57463252629710
H        12.10874817441975    2.82221433533631    6.40235055091504
H        13.73009514566089    3.31229963709350    6.88040734707886
H        13.10332125067691    1.75879164217850    7.40373870659203
C        13.07284110906533    0.38179004098014    5.25087559289569
H        13.33671349841158   -0.17904595936563    6.14755447019575
H        13.43310458397602   -0.17644159580046    4.38874796801231
H        11.98285181285997    0.44522340009441    5.19802421596764
C        15.19824961101704    1.66254497003940    5.40046449366576
H        15.45938917064580    1.02355784867725    6.24452307141512
H        15.67164566848341    2.62713172746010    5.56061416165103
H        15.61138667440032    1.20951871683836    4.50095941671605
C        13.93224745584665    4.34546841900023    3.55637710763461
C        13.97255254618783    5.11618681335628    4.87602403805215
H        14.69575430578133    4.69469889571084    5.56971145441438
H        12.98610099687725    5.12445138584088    5.33605735889141
H        14.26209388716645    6.14864686093221    4.68361414378943
C        13.10261429157960    5.16501755102519    2.56561242245899
H        12.10231200492659    5.33375603377334    2.95783310335674
H        13.00501276920422    4.66647135605790    1.60425792967472
H        13.57445095187971    6.13271833009666    2.40101666269998
C        15.34488616184686    4.16822479379360    2.99534218715973
H        15.83157837925470    5.14269968979011    2.96657352906104
H        15.32178848668243    3.78259707690648    1.97902275200619
H        15.95541289171188    3.50913655577800    3.60520359296496

