105
CSD_code = NONJEI | q = 0 | S = 0 | Stoichiometry = C42H59LaN2S | MND = 12
La        7.57829899348770    9.34492560074361   23.80600593096353
S         9.54517596537828    8.13699639109565   25.38040414452038
N         8.66831998399484   10.54145803733853   25.71287240587655
C         9.55704840784973    9.67259789029348   26.11467810514670
C         8.70122063308097   11.87089592688776   26.18782080232519
N        11.46029211338618   12.24276794896246   28.68651944548439
C        10.96371873100886    9.75962106797212   21.90822097671957
C         9.51628083196350   10.20465447958579   22.00206543756351
C         6.88665196855163   12.88613168164201   22.41631835344240
C         6.05068956843022    7.32602415523567   24.95337221644700
H         6.36527953878213    6.76032011402254   25.81759414663788
C         9.87935045981112   10.42364899080574   28.44926980387502
C         6.89933980122575    5.66116363988211   23.11205907691680
C         5.54140487649339    8.97445672256972   27.42475651101276
H         5.76158353440854    7.94699295630786   27.70309536160474
H         5.11234815027567    9.47240796334039   28.29288312542020
H         6.47934170926192    9.46995490607174   27.16811327655093
C         7.62803878428368   12.38059208632275   26.91495373416549
H         6.81452416086223   11.72759333533774   27.19416005034623
C         5.22937308338704    8.48447939964553   24.99116551061244
C         4.09930046966010   10.47201708454048   26.04875179012859
H         3.63671158836678   10.84030720886153   26.96304651975411
H         3.36258186685604   10.54036608596472   25.25239462835274
H         4.94010667250306   11.11938983527700   25.80324020782590
C        10.29676742833037   11.58229498141659   29.12186614468262
C         9.06446140815787   11.43799959328606   22.52897594034959
H         9.68612742683498   12.16879556266257   23.01963757636163
C         4.56640768128556    9.02595237391464   26.24193056033117
C         7.64788575739605    4.94813166116341   24.24191354110775
H         8.39483808273077    5.60491288771820   24.68590280717543
H         8.15462623081673    4.06674403618751   23.85371118724247
H         6.95808494892227    4.62512615103949   25.01749306698879
C        11.79037893793529   10.31610488100702   23.07301409653847
H        11.82608416696739   11.40228736526006   23.04237589986933
H        12.81188004066977    9.94463119850520   23.01540621313589
H        11.36637775585932    9.99954814847197   24.02516363531159
C         6.24203188655448    6.93370039859001   23.60773048135366
C         9.51411496987930   12.05651461840510   30.17310947373050
H         9.79845643809420   12.95963072228836   30.68997996443748
C         9.72442147558609   14.04909051205290   26.22240347633337
H        10.54035597825089   14.69921151408134   25.94241953048916
C         6.11408109697324   13.26943765567863   21.14696106688395
H         5.39331926222782   12.50109556418961   20.88037534151356
H         6.80105700159434   13.39954662763339   20.31454193566018
H         5.57418596169752   14.20180932774747   21.30049810483605
C         8.41418923346016    9.62089583762462   21.31268068105863
H         8.46820896198875    8.78635054915028   20.62485474234352
C         5.54268875932551    7.86679470846428   22.79872539551480
H         5.36886032441141    7.78011599086162   21.73440187132302
C         4.92137360378820    8.81669980173248   23.64357273496971
H         4.18413663957033    9.53819312947468   23.31742574121020
C        10.56739663961439    9.93304567283373   27.20007813634689
H        11.11007864933335    9.00238282567042   27.38416634314031
H        11.27288205364636   10.69061465378638   26.85481298534578
C         7.31087044872803   10.50898269683941   21.41264642369856
H         6.38663522368701   10.40466031669415   20.86047240126987
C         9.75564922820205   12.71898654168674   25.85202691601327
H        10.58773460203638   12.33321818823754   25.28148770923582
C         5.88769426743984   12.61892185981731   23.55340996615482
H         5.30427601565069   13.51380887161637   23.76800500822535
H         6.42719189248813   12.34234408617483   24.46441580178395
H         5.19670900118244   11.82319028202874   23.27413816073657
C         8.76915420631324    9.72999937562370   28.90582516658607
H         8.48521673605679    8.81581827565667   28.40345465457425
C         8.38160683436961   11.37886231662105   30.58431965821041
H         7.79515999559423   11.76897290698713   31.40345113409994
C         7.71471512664893   11.64259760390813   22.16004576161306
C         7.90028721254017    5.99277766716819   21.99678680564129
H         8.66388681096675    6.67709194232971   22.37843945960212
H         7.39671009131144    6.45097504854523   21.14753230299597
H         8.39409436431507    5.08660897720471   21.64900075975994
C         8.01825713260756   10.19492398125431   29.96982363168261
H         7.15367756220656    9.64331657157162   30.30604597859811
C        11.53459459509586   10.29790161987327   20.58586404432752
H        10.97987624955641    9.89382878712248   19.74268097507046
H        12.58139141563786   10.01972501458463   20.48010319063886
H        11.45646886808781   11.38205210104685   20.55531663242221
C         3.34474809940876    8.14690667196945   26.55581666868681
H         3.64835650305146    7.11209725565658   26.69220982864081
H         2.63240579862436    8.18592582524746   25.73527490185527
H         2.85115622648844    8.48895256242990   27.46350505328843
C        11.08401315878827    8.23147138868870   21.91949419668190
H        10.69831177953953    7.82458404894655   22.85546962262233
H        12.12955313810580    7.94084996326650   21.83250299498324
H        10.54432187185456    7.78847374603882   21.08613167871635
C         8.65568618100326   14.54938839100158   26.94744331349154
H         8.63483530933824   15.58982451017664   27.23611927866716
C         7.77998058327712   14.06366844044870   22.82043304600440
H         8.53738600789771   14.24369934133851   22.06157817554437
H         8.27102587510586   13.87195713556504   23.77174623787388
H         7.18067990512605   14.96591170149778   22.92755621930934
C        11.59157910068502   13.64153124306277   29.02345534414246
H        10.65213028606390   14.15203311078444   28.82380318470193
H        12.36450037430671   14.07086375933823   28.38390127240115
H        11.88562210215874   13.81070798971792   30.06960175302351
C         5.81270836876393    4.72557429649738   22.56106267859887
H         6.25384523810774    3.79433916535089   22.21133491371825
H         5.28771280308717    5.19336739642647   21.73218522975192
H         5.08645850737305    4.49653923000061   23.33711458041721
C         7.61375610899217   13.70795554032907   27.29779502779394
H         6.77967559406402   14.08685812202394   27.86970544131218
C        12.70370218998921   11.52838077739060   28.90974119724572
H        13.09232535409252   11.70522133221433   29.92325943947579
H        13.45085391187541   11.87343229469199   28.19236473828636
H        12.55927104689492   10.45919726768585   28.78661120253186

