64
CSD_code = NONNUB | q = 0 | S = 0 | Stoichiometry = C30H25Cl2N3NiO3 | MND = 4
Ni        1.70269327590142    7.40977274896400   16.87675967349553
Cl       -0.07227476245384    8.11648025778652   23.73893485735751
Cl        0.36025079858618    3.75173503488394   19.68586120167365
O         2.02156927225167   11.04043453607764   18.09379982507235
O         1.76156194863976    6.04044454059375   15.62167622002503
O         0.61124933034799    4.29056237141622   14.88391246923128
N         1.65734956782864    8.76631700957436   18.12679624951057
N         3.30288575860267    8.29056365269124   16.10237853277442
N         0.31289930861500    6.47606466892968   17.65771888947252
C         0.39164558129725    8.32963235832671   22.08644860507394
C        -0.03443703122037    7.43611076787445   21.13588093850427
H        -0.65490071476811    6.60443499863770   21.43082075855266
C         0.34460531659870    7.57409142557472   19.79211312045371
C         1.18447406168221    8.65510053504678   19.40517771207372
C         1.57609615669341    9.55761675735646   20.41432619408908
H         2.19978755642431   10.39331202376517   20.14607508962898
C         1.19809271551737    9.40513635290520   21.72329687634877
H         1.52787612474898   10.10945522535555   22.47065514482975
C         2.21420905897068    9.91674943428300   17.66405864277635
C         3.15768844472395    9.71701802137453   16.47058128219138
H         4.12610226643506   10.13065720082474   16.78450454045364
C         2.67120854272731   10.45193315716938   15.20427141307193
H         1.79344245433830   11.05934451852918   15.41641849833508
H         3.44995013040567   11.11924033850071   14.83436779727260
C         2.40770560236882    9.33031528067930   14.20000545890156
H         2.54799324492092    9.64707281653006   13.16874938679155
H         1.40029683506477    8.92453841683182   14.31615920009849
C         3.41246193719795    8.27762694365304   14.63330489851146
H         3.19200113166597    7.28326007725090   14.24620078663727
H         4.42884617551378    8.57302041460481   14.33894955735020
C         4.49835908023046    7.66603997604439   16.70534128984007
H         4.65457029517554    6.71142061629671   16.19437198705948
H         5.37378450534125    8.30921567995587   16.53519185996689
C         4.29769808418128    7.41927632699127   18.17821654740961
C         4.78365005181400    8.29647945070641   19.13752302755573
H         5.36820833619623    9.15514761635538   18.83845951490326
C         4.52548662127569    8.07963836088897   20.48075969812865
H         4.90640347159468    8.77025512197443   21.21792768915964
C         3.77875794820531    6.98482735895437   20.87727423397744
H         3.57100240798102    6.82227256859200   21.92392557934458
C         3.30355296099225    6.09374445610247   19.92920274319673
H         2.74000833646671    5.22816289144577   20.24191395915489
C         3.55840257237931    6.30516871598839   18.58357784672445
H         3.24360801348733    5.56854544953317   17.84667302436400
C        -0.16988850477821    6.61232442928271   18.84262463313906
C        -1.34583027390995    5.80663014975574   19.27714051876116
C        -1.21098135280255    4.47905776874534   19.67574726034247
C        -2.31531214513903    3.73903929726403   20.06589831624631
H        -2.18838745831037    2.71293893662919   20.37215018322900
C        -3.56830299719151    4.32682911839630   20.05643053705108
H        -4.42889745312356    3.74997787134971   20.35746586618527
C        -3.71684122873779    5.64771207891421   19.66659363326523
H        -4.69349340701438    6.10619556027844   19.66386046424373
C        -2.61054685320806    6.38425334317739   19.28200003828606
H        -2.71256666599515    7.41753972610124   18.98453496239963
C        -0.31644819771502    5.60444164701953   16.67916655414759
H        -0.74984126521694    4.70339841699016   17.12469337881467
C         0.77142864279761    5.23618544263363   15.62434892244026
C        -1.42098781170956    6.38930742455668   15.92977795647660
H        -1.59866884382397    5.91373039729462   14.96189389109984
H        -2.35006077929565    6.37613281076457   16.50872065670294
C        -0.99648814540715    7.76436656966820   15.75892375872578
C        -0.57990494159055    8.89224643359417   15.75453468084332
H        -0.35750309277140    9.91775610176405   15.69093096625840

