96
CSD_code = NONROY | q = 0 | S = 0 | Stoichiometry = C40H50F2NO2Ta | MND = 6
Ta        2.07067709100114    4.10503673622154    1.25729270375936
F         0.83318738705291    3.98698025176215    2.64255145322674
F         3.26515875039470    4.17217453792027   -0.17132240528833
O         3.21195377180738    2.99436953785446    2.14745111907997
O         1.35706800493982    5.69853388690094    0.72741900686274
N         3.28933313305431    5.75799970324652    2.84584830894910
C         4.29900203319696    2.88447622311202    2.89321692516753
C         5.12050051016940    1.73639601741441    2.86242154039721
C         6.25467758832630    1.70927426047945    3.65849153503772
H         6.88215109186646    0.83852273810257    3.62063992230928
C         6.62027430708667    2.75614664049068    4.49737412906355
C         5.78458602443996    3.85910951808075    4.54182472361450
H         6.03258416834389    4.70073186654423    5.17065623956291
C         4.63282305053342    3.94315942086805    3.76534472097532
C         3.78744236726628    5.14071902124747    3.92479860299635
C         3.56127439910317    5.63491587701590    5.21161134148349
H         3.93696256741141    5.09616250872530    6.06679162126357
C         2.81484079391608    6.78716527745765    5.37104487626559
H         2.59738187645973    7.16811655037539    6.35839914637554
C         2.35178296640111    7.44441108594452    4.24696889847470
H         1.76636741358639    8.34580784096684    4.33381615980557
C         2.60697530536081    6.90119252794451    2.98552803169953
C         2.15042527867316    7.64028459501803    1.79390834462338
C         2.34176196668180    9.01857515137916    1.78144978611397
H         2.87067969421676    9.46232541916228    2.61134718919765
C         1.90856231780863    9.80955322551631    0.73105837898122
C         1.23598985882659    9.17833559648804   -0.30940311902398
H         0.87436683000148    9.77688015379914   -1.12449157770371
C         1.01171066752152    7.81118792159740   -0.34865246670185
C         1.50208543065884    7.01313113228750    0.70796045812875
C         4.75549505478068    0.56764718095513    1.95331116913282
C         3.35173620211199    0.06273536815887    2.31815872242856
H         3.05843838785528   -0.74432818782714    1.64955561773463
H         2.61900297087310    0.86171079993346    2.24203259283523
H         3.34562920436109   -0.31462603195679    3.33935385424039
C         5.71920078919534   -0.61750765942387    2.08709681081286
H         5.73565811565076   -1.00179199764942    3.10439745803824
H         6.72860776451690   -0.34445243473927    1.78906173079199
H         5.38534548056070   -1.41973462236128    1.43221404360118
C         4.79658651558436    1.03863938524264    0.49218544997888
H         5.80793245040362    1.34358749631085    0.23018948771004
H         4.13368389606506    1.88352618857866    0.32594435390490
H         4.49921849948718    0.22749795664899   -0.16975508753715
C         7.87595693067817    2.72892313147806    5.35687945296691
C         8.77823366647290    3.90632685938865    4.96168688413644
H         9.69049614528121    3.89523605816786    5.55455890332391
H         8.28032448185579    4.85851007370531    5.12103319421748
H         9.04789860479059    3.83541855832834    3.91028419814307
C         8.67978966695878    1.43649304570501    5.19032390873930
H         9.01144722403151    1.31156559112059    4.16240477770762
H         8.09422484171734    0.56943599745638    5.48636241616383
H         9.56296822862442    1.47629418400089    5.82475544712921
C         7.47430899399361    2.85415971866329    6.83352077131426
H         6.80890160797676    2.03973154409525    7.11198016896982
H         6.96367695729811    3.79345846895653    7.02648765468556
H         8.35742984943791    2.81092599167859    7.46747421181423
C         2.16610648223297   11.30920450337577    0.76248949772484
C         3.67882091822916   11.55697752187070    0.84601163468308
H         4.17923283472912   11.11276162183679   -0.01161158439520
H         4.10293451829590   11.12513741080411    1.74802182814476
H         3.88382889982784   12.62549815739136    0.85126786061364
C         1.47216741264137   11.90854270963785    1.99407106137475
H         1.86570341402176   11.48572668371576    2.91438094913366
H         0.40305947988796   11.71007504353101    1.95632814748105
H         1.62292468643287   12.98566065250607    2.02252679126018
C         1.63506280603371   12.02731244298266   -0.48118298125859
H         1.85714538188402   13.08996352752024   -0.40670579230751
H         0.55685860656351   11.91669407557294   -0.56824274207388
H         2.10874590837229   11.64845442336581   -1.38359024010702
C         0.25529984056288    7.15935605144265   -1.50070344184220
C        -0.25714150181208    8.17484360488260   -2.52918253821029
H        -0.93614533034434    8.89169232250785   -2.07327236146494
H        -0.80358392526259    7.64524679813526   -3.30691402461525
H         0.56307420223584    8.70753506188259   -3.00449580855716
C         1.19010963838666    6.18671505604413   -2.23407355358702
H         0.65105127177546    5.68420247122667   -3.03501719576447
H         1.59101744034351    5.43519390779051   -1.55944738337479
H         2.02459670962610    6.73222820140463   -2.67037392070913
C        -0.96523839955376    6.41565012791513   -0.93859312585131
H        -1.63540863943644    7.11881414931648   -0.44715552333282
H        -0.66962637556158    5.66053861031252   -0.21430176013819
H        -1.50963878054255    5.93100934740507   -1.74670831726486
C         0.88322471265196    2.55053634977113    0.00378345185052
H         0.80295914973644    2.91497750659889   -1.02218892312027
H         1.47932292533630    1.63544563866493   -0.01526031869558
C        -0.46597234884094    2.25562181100815    0.54390428316427
C        -1.61143935114884    2.80073324462501   -0.03353184870948
H        -1.51506657513745    3.43914708167854   -0.89979392092555
C        -2.86618550365893    2.53248687985013    0.48307643336953
H        -3.74071503909325    2.96988540745795    0.02277781327855
C        -3.00481392385777    1.70389311418135    1.58283945939899
H        -3.98432215698290    1.49301642828316    1.98628179539714
C        -1.87643051050917    1.14478862539080    2.16114218594968
H        -1.97678554858437    0.49414501587976    3.01793203718206
C        -0.62356537621535    1.41485422807235    1.64681909554128
H         0.25265287006590    0.98187629561652    2.10944919303690

