121
CSD_code = NONRUF | q = 0 | S = 0 | Stoichiometry = C58H54N4PdS4 | MND = 4
Pd       12.96126181239373    0.83421600287006    5.17501005276208
S        10.64289576305267    2.84580293753340   10.34275957420684
S        12.44072641090064   -1.13380593606324    6.47841981368063
N        10.33319666720266    1.36827133184744    3.77890856190480
N        10.13874574678008    1.62925668058499    5.92795001050537
C        10.99285550645077    1.24904723620427    4.95106045992281
C         9.06650389806011    1.85901747532376    3.99152489440463
C         8.03198398438261    2.18098418049797    3.12757960357109
H         8.11561113006576    2.03257320957963    2.06256199997286
C         6.88382323728309    2.70634457760208    3.68693430321210
H         6.05856501030328    2.97627116302512    3.04589482750190
C         6.76649396679678    2.90014927624593    5.06185625655688
H         5.85411770572077    3.32054344287067    5.45630456303557
C         7.78734649051013    2.56781248969222    5.93086569345847
H         7.68376807751474    2.72641082784349    6.99272748786147
C         8.94425393943899    2.03873412792824    5.37944622757711
C        10.86909245923822    1.02535512195493    2.48306529503620
H        11.95165919165701    1.23532477684480    2.51110613060060
H        10.41115917008432    1.67622289427296    1.73480271429888
C        10.63626078011372   -0.42074028702905    2.12105946109464
C        10.88123666142982   -1.42348384263491    3.05135798253028
H        11.21496019169992   -1.15942368056789    4.05147539582039
C        10.69738655801125   -2.75224324228556    2.71318057064551
H        10.88524119607831   -3.52293643117572    3.44653138201943
C        10.27633266204307   -3.09270036784893    1.43791966403169
H        10.13612345103347   -4.12958625969459    1.17051241192409
C        10.03557197828643   -2.09859298808798    0.50458505169396
H         9.70915500999308   -2.35870815318795   -0.49152622759905
C        10.21017240160201   -0.76821419533278    0.84593191149951
H        10.02075921911144    0.00394957835519    0.11324086125893
C        10.38484229247613    1.47165338166075    7.34382180797518
H        10.55948226772473    0.40797391494235    7.54771075350151
H         9.49326441330613    1.79147567024232    7.88601460557001
C        11.59664230645265    2.27810491213699    7.80549930153461
H        12.47001659454949    1.97317519444976    7.19107849683549
H        11.40382487169656    3.33870295713996    7.63517430505668
C        11.89395487362247    2.04632379002074    9.27463372348084
H        12.87765506286975    2.42041368612323    9.55597230797362
H        11.83246626829829    0.98834789460888    9.52932142761511
C        10.77562996948681    4.55348661710034    9.87784513440531
C        11.96506135376414    5.13335889019927    9.45767805968799
H        12.87628446922725    4.55834450385663    9.40144472347368
C        11.98803462835192    6.47199580437977    9.10839962977111
H        12.91450866188180    6.91227626103003    8.77035151183715
C        10.84027177941157    7.24190266373108    9.19119509655806
H        10.86571022950428    8.28509671750026    8.91423055939066
C         9.65949143763213    6.66599828286510    9.63254645600178
H         8.76056773933528    7.26005066953378    9.70541563083828
C         9.62346259110710    5.32669772594580    9.97003465553760
H         8.70728314532308    4.86691688650117   10.30865627295584
C        13.77645920223045   -2.23884056148357    6.19199160439012
C        13.94497662796721   -2.84034179133388    4.94909552561497
H        13.21219779185026   -2.66102756975191    4.17591562017057
C        15.03036600599160   -3.66215598773144    4.71429312095887
H        15.16274383715899   -4.10887132902317    3.73805018677437
C        15.94134505891441   -3.92073095792842    5.72542034438643
H        16.79816295631843   -4.55018114501394    5.53658608541273
C        15.73231281866892   -3.38805752792330    6.98682148259526
H        16.41894957732939   -3.61545452279947    7.79001871926521
C        14.65265817166945   -2.56025737150439    7.22498651106234
H        14.47665818310349   -2.15791469881209    8.21202529546398
S        15.27741211102668   -1.18062809965696    0.00765026861896
S        13.48168388147962    2.80200994035575    3.87136452440365
N        15.58963225428753    0.30033145420967    6.57081354029100
N        15.78324846320486    0.03826207935745    4.42180998250818
C        14.92959114847701    0.41916159875716    5.39882430389315
C        16.85612090167466   -0.19089351497965    6.35796162290004
C        17.89091548754116   -0.51277952661604    7.22161573037656
H        17.80783293804485   -0.36381919457419    8.28660081533358
C        19.03867421525923   -1.03879586911074    6.66203770374043
H        19.86411355985715   -1.30866079685890    7.30287072760436
C        19.15538412395411   -1.23334771003696    5.28716986499320
H        20.06744640195797   -1.65426630534707    4.89255174213483
C        18.13428828734862   -0.90107188340814    4.41842863643906
H        18.23734125875162   -1.06023930130762    3.35660017299322
C        16.97780579384860   -0.37131000801205    4.97007831611353
C        15.05393339996777    0.64326237589520    7.86674113046047
H        13.97154509027190    0.43225495343114    7.83920852844781
H        15.51278286915466   -0.00694340282615    8.61502063530199
C        15.28524695646344    2.08966516712081    8.22853571306807
C        15.04011203451088    3.09208190973827    7.29793978491097
H        14.70761049408103    2.82764430172452    6.29752113612550
C        15.22218370260826    4.42107060791542    7.63622595511670
H        15.03425174140498    5.19149896306882    6.90261474145793
C        15.64150360154450    4.76209019697246    8.91190098084518
H        15.78021672760372    5.79915159072889    9.17940808924515
C        15.88243634288570    3.76829742885469    9.84553019864840
H        16.20752602718870    4.02882878156109   10.84196614635265
C        15.70968495979359    2.43770928452088    9.50406968706468
H        15.89923329139000    1.66580919485840   10.23700327640835
C        15.53673325367363    0.19530798013623    3.00595122014322
H        15.36202412588772    1.25891780589696    2.80172789201519
H        16.42815664036527   -0.12469503766570    2.46361500097688
C        14.32479721370419   -0.61127123503112    2.54483571326200
H        13.45163699082818   -0.30618142930329    3.15945659344631
H        14.51755654225201   -1.67186470307778    2.71532743000268
C        14.02716712286273   -0.37977599320177    1.07571208735366
H        13.04313581547866   -0.75329305665879    0.79480320913505
H        14.08930930017973    0.67805853705301    0.82060985375344
C        15.14282514363074   -2.88800641763837    0.47334609619597
C        13.95206409061321   -3.46679574966529    0.89124197702472
H        13.04114916017609   -2.89105503607351    0.94521723452066
C        13.92734492045194   -4.80525298854806    1.24107577330863
H        12.99978136036243   -5.24473958385028    1.57719551766062
C        15.07475626521365   -5.57600038484758    1.16114344408251
H        15.04795622598991   -6.61905915974623    1.43854447851528
C        16.25693142509627   -5.00116321623252    0.72214474198105
H        17.15563557583253   -5.59586084752080    0.65168305417566
C        16.29464860680159   -3.66204075206181    0.38404723790695
H        17.21191646800773   -3.20306652001433    0.04725194552436
C        12.14578698475485    3.90680671017267    4.15779256408832
C        11.97651277851931    4.50730053255923    5.40106678416776
H        12.70881817083554    4.32728005560836    6.17450923739316
C        10.89093643577726    5.32885136373281    5.63591830255753
H        10.75778748066893    5.77454610732123    6.61251339578019
C         9.98053035737212    5.58818281269524    4.62447061841746
H         9.12351329552809    6.21732557914583    4.81334943064722
C        10.19031274541906    5.05650020095304    3.36277139750241
H         9.50412552646533    5.28452309861675    2.55938922941483
C        11.27015330449848    4.22896114490201    3.12455460312343
H        11.44679314548835    3.82747105571641    2.13729408941789

