92
CSD_code = NONRAK | q = 0 | S = 0 | Stoichiometry = C36H52NO2Ta | MND = 6
Ta       13.35431504306198    8.46582322486734    9.45959103588229
O        11.85930249653189    8.63815642849883   10.48549092103023
O        14.99963691716873    7.91851005115532    8.90109666600344
N        14.04907832285901    7.02833484166369   11.50010437143283
C        11.18746109761532    8.14767441438157   11.50523957081130
C         9.78177386080131    8.29405930521876   11.60554112461224
C         9.12669180885469    7.71234266676617   12.67425982525754
H         8.05752733713449    7.81079955647029   12.74158839859917
C         9.78102939371695    6.99155281548567   13.67114514614544
C        11.15529195588542    6.88796072956634   13.58119192546390
H        11.70772566443729    6.32966192415879   14.31887707158244
C        11.87616451562900    7.45751432249143   12.53110497054393
C        13.34781317575152    7.32621582339428   12.59559555336258
C        13.98000522170140    7.48702480941013   13.83249926020838
H        13.40843748380571    7.76911578140535   14.70254598785798
C        15.35125494346259    7.33207418825895   13.91144523485624
H        15.86578950734851    7.48323818334384   14.84981222176670
C        16.05708980772042    6.98866298220539   12.77374582045928
H        17.12919072237445    6.87488231904647   12.80516253389976
C        15.36877173900981    6.84440853138899   11.56511858569132
C        16.13342381975701    6.44975663945722   10.36211714254766
C        17.10421072772029    5.46365798176016   10.53911816629914
H        17.17210135013653    5.00102995406943   11.50999556043565
C        17.93235631648053    5.05510058091928    9.51199529847918
C        17.78742223336790    5.69180719696315    8.28110243566577
H        18.44494672281854    5.39988276461250    7.48120487918497
C        16.83785451917162    6.66622456633576    8.03891955839658
C        15.96168038200381    7.04003146971163    9.08750374641510
C         9.02132619621053    9.06911116706647   10.53318272361728
C         9.17194311834249    8.34844992717029    9.18560227902727
H         8.62312882207357    8.88442076295408    8.41350098380083
H         8.77209481404000    7.33870512138501    9.25744131736750
H        10.21563885949933    8.28590526295582    8.88847252807927
C         9.58122204461272   10.49620878533757   10.44192806615608
H         9.45348742678572   11.00799493173296   11.39421819944788
H         9.05131406380935   11.05656264138482    9.67404643976366
H        10.63953801092623   10.48773875204344   10.19451564449792
C         7.52165550949866    9.18342384036243   10.83235532442280
H         7.34469056425089    9.68767122286414   11.77967824227295
H         7.04482042238446    8.20614113851350   10.84906285008375
H         7.04753253575639    9.77029582952672   10.04811218660409
C         8.96803121230741    6.36484876645897   14.79416866718478
C         7.99450818049094    5.34136702626839   14.19336586799412
H         7.30734946091750    5.81222133624261   13.49609210741913
H         7.41125531360541    4.86920556773029   14.98126491296442
H         8.54498616928498    4.56957738073094   13.65996067671021
C         8.18174557771585    7.46271031658632   15.52474742088170
H         7.47693656952881    7.95576237973843   14.86160475119325
H         8.86299938078775    8.21434632156521   15.91762931911262
H         7.62331772323696    7.03462510987575   16.35466389594027
C         9.84368059480114    5.64474719768936   15.82318052106393
H         9.21344243838685    5.22259789138645   16.60348978888595
H        10.54192370545659    6.33415385123398   16.29195405422593
H        10.39911628358395    4.83083575146142   15.36369339889476
C        18.98706518280881    3.97011205120723    9.67083891330349
C        18.98217496044687    3.34539719012502   11.06865264114662
H        19.21195089612938    4.08663585673634   11.83032645606744
H        19.74032922616791    2.56639668778046   11.12032377815395
H        18.01851590996969    2.89284216524031   11.28971658445508
C        20.37384864437019    4.58033311799723    9.42306699709289
H        20.56226715077302    5.38398409119650   10.13171012161874
H        20.45298474506571    4.98738461042099    8.41899942903349
H        21.14527740508924    3.82290751853157    9.54588924890619
C        18.72140628077006    2.85402988539430    8.65080502981424
H        19.44663947855337    2.05234224046614    8.77429066776237
H        18.79358065993669    3.22166053415462    7.63131173051317
H        17.72436956733385    2.44412578193613    8.79572119696389
C        16.70387004257753    7.32329677654088    6.66812521796590
C        17.77667730137790    6.85610404137696    5.67698574818061
H        18.77661597442202    7.07397100534464    6.04539034651094
H        17.64476562526414    7.38610993924191    4.73573219363282
H        17.69146110029840    5.79139838618721    5.47252040364944
C        16.84578062431452    8.84552675106907    6.81313481395718
H        16.09166941670853    9.24869648286802    7.48396302664285
H        16.73578568208302    9.32454773598897    5.84210230225914
H        17.82857506123327    9.09184361518222    7.21117833536161
C        15.33381563885090    6.96837016935797    6.07205597003736
H        15.23919307061409    5.88836795948168    5.97563546069139
H        15.23005847379700    7.41484121026500    5.08486218765095
H        14.52584130730155    7.33041706081836    6.70288603025413
C        12.66397728047707    6.27243572920313    9.08808274631086
H        12.16143338509119    6.23157869863839    8.11856620208404
H        11.96352075844717    5.92289687710006    9.84374341613732
H        13.49960155134261    5.57608981783186    9.06154807040149
C        12.72770472480949    9.70455609360647    7.65452288335315
H        13.57762388494221   10.14118070990922    7.12862861289598
H        12.07499937515142   10.53394909437338    7.92982873384712
H        12.17992186008075    9.11418743458129    6.91738384820130
C        14.43343773794754    9.90686085773344   10.94528503105114
H        15.46678880234950    9.62416211379363   11.14105876859274
H        13.92445947180175    9.99712253746636   11.90391167406355
H        14.44277965668599   10.89540483757879   10.48007000093523

