90
CSD_code = NONREO | q = 0 | S = 0 | Stoichiometry = C35H51O2STa | MND = 6
Ta       11.63154035228131    6.44702848161837   11.14749314781602
S        13.57077722863989    5.45890634639418    9.39373493864083
O        12.54774601621707    5.26244196460258   12.18207887283761
O        11.43458656588757    7.48780999770417    9.66830079108429
C        13.53114373628551    4.43599754412433   12.50472672928460
C        13.48080893897489    3.55908676699395   13.60673101330818
C        14.56911835795037    2.72691988789038   13.83440297165322
H        14.51893146335497    2.04879696874695   14.66545823710881
C        15.71922406583320    2.72645422097016   13.05472592894596
C        15.77537357414349    3.62330242015133   11.99817046697707
H        16.64673452214828    3.68807972141778   11.36407802197880
C        14.70928069365707    4.45800115358768   11.71566441105343
C        14.77840407345883    5.45570774750580   10.65138046730139
C        15.55157716946554    6.57415355819368   10.57574673560636
H        16.36343978710328    6.77125116694111   11.25457943002453
C        15.11799780920646    7.49196124709495    9.58974010278182
H        15.56642151143371    8.45917320293250    9.44121256208096
C        14.01165627059139    7.07646233878082    8.91257186476134
C        13.11272465920874    7.84766178042945    8.05964396184026
C        13.56504421716890    8.43624485260733    6.88786252468599
H        14.58739382012466    8.25106894046778    6.60135282325197
C        12.72358587893314    9.22200022747173    6.12135093984901
C        11.42121965375263    9.40608541379379    6.58074116103362
H        10.76552125828075   10.02021568415398    5.98904589907604
C        10.92591765246917    8.85730250646342    7.75243892107867
C        11.78827152460315    8.04545229025194    8.51977015585707
C        12.26321079748250    3.54495842432351   14.52437253606915
C        11.02199064416485    3.13489512889288   13.72059589537759
H        10.81690346759490    3.85026596558177   12.92941009640193
H        10.15454862145675    3.09060455794385   14.37562792765230
H        11.17010955400786    2.15146664934001   13.27778821129225
C        12.06499616169634    4.94719997561760   15.11854889461115
H        12.94947343932941    5.24380653479037   15.67967936271809
H        11.21196512407922    4.94602808466359   15.79353873651641
H        11.88136566087668    5.68169175552377   14.33857840451942
C        12.41045290955657    2.56243036919917   15.69211961462144
H        12.50651604510903    1.53781673929699   15.34021964256992
H        11.51909509461268    2.61781836391116   16.31352512489748
H        13.26652963723088    2.81198062502467   16.31487208801113
C        16.89894420703194    1.80275963034488   13.31690595216679
C        18.14481711014942    2.65214432048448   13.60494551013425
H        17.97521427369073    3.28460749579640   14.47381613675395
H        18.39171858283093    3.29083158668101   12.76154263127663
H        18.99893394508171    2.00913951350289   13.80677645972265
C        17.13761023499696    0.93611241027342   12.07219716737284
H        17.96643866821698    0.25255509966758   12.24397848435659
H        17.37370521888191    1.54551243573762   11.20443588822894
H        16.24849115640239    0.35124780273180   11.84619672328959
C        16.67088191922133    0.87008436105335   14.50931577458833
H        15.80720325342843    0.22985314623099   14.34599369736736
H        16.52993866715745    1.43462152212851   15.42796000612076
H        17.54203976578566    0.23108612106004   14.63951775364874
C        13.16092899555555    9.88901194359364    4.82652398386132
C        14.61578768456730    9.57318724017157    4.46895759131797
H        14.76171415690789    8.50407240372069    4.33374099829793
H        15.29448183997441    9.93154371225001    5.23936886003171
H        14.87597151268691   10.06878590472793    3.53582279986995
C        12.26907260602415    9.39657355080588    3.67833714609313
H        12.33837471853267    8.31474342591234    3.58654839206834
H        12.58685473354283    9.84418047917286    2.73899520395032
H        11.22789493528849    9.65836242429480    3.84386299978428
C        13.02431652093679   11.41081758855550    4.97546039655632
H        13.35328758117869   11.90758295058108    4.06513700391883
H        13.63692029796830   11.76359944580219    5.80246193778488
H        11.99488060895102   11.69966001526417    5.16751848413749
C         9.50032307277775    9.12576376812052    8.22088879198240
C         8.72152708631753   10.03246381961002    7.26084919582172
H         9.19273204710751   11.00822091991683    7.16625365227602
H         7.71879823940559   10.18440408856572    7.65470191289139
H         8.62694712819304    9.57952585709043    6.27637843091399
C         9.54196792757987    9.81959105250144    9.59008234658004
H        10.01748705804106    9.18709132636055   10.33526932956116
H         8.53046863924587   10.03881429436462    9.92458582966593
H        10.09332761759812   10.75553270904232    9.51824004783784
C         8.74009457632293    7.79708977412109    8.32866079164475
H         8.73722361469425    7.28697390686367    7.36674927092750
H         7.70962649560922    7.98251748095689    8.62374609056076
H         9.19540938303344    7.14851714800859    9.07154301382400
C        12.29665449726487    8.22353114019183   12.46918597694484
H        12.17726852468124    8.09733122412359   13.54241541815108
H        11.83856949110974    9.17440089577068   12.20494369359031
H        13.36879084108008    8.31598278605586   12.27225165260270
C         9.66202714599119    6.90266592816161   12.33717958155158
H         9.45155733868912    6.10460239395040   13.04442903453794
H         8.81101337985096    6.96718954094362   11.66455575192571
H         9.70270361969359    7.82969681101373   12.90008169791843
C        10.21534112134931    4.76733546008246   10.36516366622482
H        10.02583468089459    4.93950565443029    9.30515921717125
H         9.25307234951029    4.61665811212549   10.84513239734375
H        10.76671297094356    3.82818776715510   10.43745561513261

