77
CSD_code = NONRIT | q = 0 | S = 0 | Stoichiometry = C34H34Br4N4Pd | MND = 4
Pd        8.47289064190293    8.20246479230174   19.26060585580208
Br        9.23751932873595    6.43547991075287   17.73311563564118
Br        6.35234758778048    4.23647085728947   23.39293059092144
N         5.88329836516099    7.82690491643553   17.76784701437773
N         5.75097001779229    7.04751186699857   19.79362667345240
C         6.57064754977664    7.65814610282302   18.91258709341048
C         4.60215484499256    7.34224899515379   17.91046419719337
C         3.52222640711592    7.30334740711178   17.04341021682197
H         3.58462667467306    7.71096436594535   16.04699531150825
C         2.35942264649901    6.72775046122409   17.51723122452985
H         1.49439648971028    6.67781419066360   16.87424279969346
C         2.27554194671067    6.21012769470243   18.80884517591862
H         1.34787297044284    5.76768091436328   19.13715931673129
C         3.34627973955024    6.25162589487655   19.68096622188110
H         3.26402798377884    5.84894414030526   20.67813363514056
C         4.51743148890731    6.83016598558159   19.21609143655575
C         6.41124125761961    8.39608612673385   16.55107802269494
H         6.13153377264652    7.75014143060280   15.71319726373579
H         7.51042835232413    8.38656979129488   16.63345870744244
C         5.93776118683523    9.80789475690432   16.31143570926204
C         5.90649354599796   10.72108298388996   17.35775905246184
H         6.18909565476203   10.41329930639644   18.35535905977267
C         5.51330637905173   12.02831247096883   17.13461437419143
H         5.49456019754111   12.72727564170223   17.95698400395748
C         5.15156447730949   12.43528551020914   15.86115115321813
H         4.84762262933914   13.45607240756081   15.68471998043398
C         5.17971302229571   11.52926408179563   14.81417198629003
H         4.89677409011961   11.84137994848820   13.81993902752252
C         5.56857177677847   10.21997062619809   15.03846075263341
H         5.59113618046313    9.51558735459860   14.21872554807526
C         6.12827442976034    6.68530257507799   21.14052303397627
H         5.27347214162443    6.19553978024059   21.61107532706869
H         6.36180151850261    7.59807634723590   21.70591618299979
C         7.34015563837484    5.74557152115196   21.14609946466377
H         7.12083795752662    4.86017663594959   20.54236129005887
H         8.20832262371069    6.26471075397747   20.68884520253079
C         7.73689440887598    5.33707838264260   22.54829222600783
H         7.87052598228617    6.20062492131145   23.19954236477624
H         8.64251589868392    4.73252813558982   22.54625407070574
Br        7.70703766204695    9.97275564478214   20.78927194093968
Br       10.59164799268575   12.17019558887948   15.12925554741546
N        11.06222053559054    8.57811634644931   20.75349258887152
N        11.19465408846104    9.35820900039105   18.72797192668814
C        10.37506973499569    8.74692195278185   19.60863410144447
C        12.34344508038024    9.06259571509649   20.61103819507951
C        13.42338971770115    9.10094307725439   21.47809915027488
H        13.36089877279882    8.69299758098492   22.47437403086889
C        14.58638322633459    9.67625165191829   21.00440021739128
H        15.45148701129471    9.72559488595919   21.64733224251187
C        14.67036880552685   10.19427007722760   19.71295176478473
H        15.59819777394670   10.63643598413603   19.38471060311959
C        13.59955861689927   10.15346586347254   18.84088228864695
H        13.68192155685592   10.55642975501302   17.84383921916334
C        12.42825921341840    9.57507669854220   19.30557094070049
C        10.53398472075165    8.00915785904948   21.97027025961888
H        10.81348823097708    8.65518575370647   22.80816388084007
H         9.43482449816667    8.01857655977297   21.88763127309862
C        11.00737760906360    6.59737553764864   22.21005966476221
C        11.03719490980481    5.68379875476062   21.16403422332070
H        10.75360907606981    5.99136860399379   20.16664118529827
C        11.43015979051858    4.37651805669148   21.38721284646542
H        11.44772531889835    3.67723946935546   20.56508452725732
C        11.79320093034317    3.96990917357238   22.66042614639057
H        12.09699326888926    2.94908585342606   22.83689719693203
C        11.76658245676435    4.87634150827855   23.70708579700125
H        12.05059147115430    4.56451149325185   24.70110292037565
C        11.37788159672675    6.18568088872566   23.48276259183332
H        11.35644694975233    6.89036417536780   24.30227283839413
C        10.81746284652499    9.72098733974926   17.38118501582078
H        11.67198564401156   10.21189905696039   16.91131349116745
H        10.58508999577585    8.80831426174448   16.81514617944733
C         9.60471172530421   10.65962261460159   17.37547762148520
H         9.82299820787723   11.54511659603195   17.97945954914547
H         8.73678958003811   10.13964255340768   17.83226545896435
C         9.20797446314413   11.06796939757950   15.97324932276462
H         9.07543158316546   10.20435381001765   15.32186826435021
H         8.30169753138400   11.67154087236209   15.97514878329158

