69
CSD_code = NONSIU | q = 0 | S = 0 | Stoichiometry = C36H22Br2N6PdS2 | MND = 4
Pd       18.31218291480608    9.35982155707045   14.79367443113796
Br       22.80267248929896    6.09877872555777   16.52654168816988
S        20.12265853086940   10.55201744593014   13.76957176631075
N        17.88818020614746    8.06979394836885   12.39049600221564
N        19.37996791529436    6.79594116092630   13.38740179849547
N        19.86588762550376   12.89959263284095   15.27465365147472
C        18.68328683041553    7.91044977999187   13.51688376074784
C        18.06438673405612    6.98170843448144   11.53865808990295
C        17.54239178559797    6.58335035325860   10.35345188819766
C        18.01898595279535    5.44440101189137    9.91000468945276
C        18.88958870722819    4.68509455982069   10.48957757086329
C        19.47214259881550    4.98119500828245   11.63606327663327
C        19.05975173773384    6.14335310559994   12.21338858759933
C        17.04271917371948    9.10053103160810   12.39894023519101
C        16.14108042739431    9.26444906096629   11.30072691766750
C        14.79739470373955    9.54951791773952   11.58429261903107
H        14.47905514150782    9.57358858746165   12.61471102956145
C        13.89413815008725    9.72867706823620   10.56011200647156
H        12.85821141004206    9.92379540477256   10.78992222848079
C        14.32150195801712    9.69184207282835    9.23985584323608
H        13.61630575216682    9.85744314503383    8.43933196063597
C        15.65746919751570    9.46256104137780    8.94813607505231
H        15.99368019703025    9.45971224582834    7.92150731662529
C        16.56355444581279    9.22833266309442    9.96249751396753
H        17.61117119463192    9.09799715005308    9.73356306267981
C        20.23298557911820    6.26275927454476   14.42066813496518
H        19.78158825533476    5.33301894109224   14.78673555352367
H        20.24460961064458    7.00370431103857   15.23929261235655
C        21.64001346495521    5.99520017003841   13.88631904105080
H        21.55835609417647    5.43770945240835   12.94713110330717
H        22.14051034958420    6.94450489365726   13.67997272489861
C        22.46723792826716    5.16090208097723   14.84361644920382
H        23.44735818866504    4.93660768468765   14.42568428784164
H        21.95824579531154    4.23508498396792   15.10961527573967
C        19.95775193463290   11.92474771050211   14.66028651247554
Br       13.81755047401998   12.61819929091320   13.06659572304146
S        16.50178183143888    8.16804439374318   15.81693477936304
N        18.73774896240694   10.64993079765863   17.19612500184413
N        17.24579914220615   11.92434041396267   16.20024429381291
N        16.76011056599199    5.81883433459897   14.31472220371351
C        17.94161501490690   10.80935401691319   16.07043282369984
C        18.56296229346277   11.73834494727331   18.04780431076006
C        19.08613584565056   12.13658734930383   19.23253393531412
C        18.61048421407625   13.27585569886124   19.67619380446052
C        17.73972191238739   14.03542802373012   19.09724508377963
C        17.15605291614379   13.73951839703990   17.95125438759772
C        17.56741346655217   12.57702341862809   17.37384734635771
C        19.58329535233163    9.61926037862560   17.18683997568942
C        20.48720678061120    9.45678839765348   18.28343927066822
C        21.83068490775127    9.17320673460709   17.99755444663731
H        22.14714882013443    9.14887511810270   16.96655272014652
C        22.73606236948446    8.99594833432969   19.02020052597304
H        23.77182618503004    8.80203459663928   18.78864265452876
C        22.31112236935984    9.03321705141417   20.34121891755369
H        23.01803634480163    8.86913411266980   21.14053581883396
C        20.97541946730469    9.26099402104762   20.63525963481411
H        20.64108813277980    9.26418600237522   21.66250203307596
C        20.06715649629374    9.49334382109177   19.62240604393676
H        19.01979005018300    9.62244037125435   19.85316138640454
C        16.39145575212614   12.45764898130560   15.16817313971978
H        16.84184198857115   13.38790339542028   14.80219067445286
H        16.37928631435067   11.71719571671554   14.34912651212631
C        14.98494333864476   12.72395644539184   15.70454910364942
H        15.06753038792545   13.28176868046269   16.64347192422175
H        14.48582702301491   11.77414836569497   15.91195055808216
C        14.15520881813039   13.55708836709228   14.74842497029447
H        13.17571177028546   13.78075534978558   15.16818227735704
H        14.66289354031229   14.48322346235754   14.48099251191170
C        16.66946417042575    6.79483659740182   14.92740550100657

