85
CSD_code = NONSEQ | q = 0 | S = 0 | Stoichiometry = C38H34N8PdS4 | MND = 4
Pd        6.65060101390339    4.80026719309651   18.23074095764597
S         7.98531711005409    4.39250705813136   20.13204591196373
S         7.94280094945332    2.11549234049854   14.01495255889062
N         4.68281433018106    2.95265062754316   19.66854853599213
N         5.39987561594955    2.10638920379517   17.79736002949540
N         8.12782117790948    1.77620099265958   19.14063261179668
N         7.07787179443645    4.54620975991482   12.87195626295368
C         5.49321860687872    3.17634297141873   18.61471186630978
C         4.04955867614761    1.73806567620993   19.52631633506234
C         3.12987687490591    1.06620951640071   20.31657407893641
H         2.75080993519702    1.49288233295690   21.23117239337142
C         2.71480875268614   -0.17710976237480   19.88122166726649
H         1.99935575422725   -0.73125125754826   20.46899160748038
C         3.20366345782934   -0.73848958676671   18.70275021633960
H         2.86112419204435   -1.71822023331421   18.40694939664989
C         4.11519898615718   -0.07262558700995   17.90642319277894
H         4.49394092327924   -0.52145034310936   17.00192943655478
C         4.52601566797392    1.18341907411018   18.32729818817730
C         4.59029894351866    3.78076639412545   20.85442078631238
H         5.56522727993681    4.26888012594125   20.99635665235658
H         4.41041727285318    3.13095321394967   21.71318331585039
C         3.52147369813331    4.83550911597954   20.74060189995503
C         2.40408521830168    4.84957049058131   21.56060867114309
H         2.27460471599828    4.08269568088637   22.31090108241430
C         1.46288589778761    5.85703526122455   21.42830045645270
H         0.59589892279489    5.86599950207645   22.07243184901093
C         1.62927933013872    6.84993056025055   20.47779950768457
H         0.89224082301747    7.63303315109176   20.38111986400675
C         2.74316885230561    6.84046357247334   19.65371862780869
H         2.89241679546949    7.60932632088669   18.91066283098272
C         3.68030814567123    5.83554969231605   19.79186388673391
H         4.56570656961696    5.81925331087963   19.14997530499816
C         6.23660711691075    1.86617390891597   16.64846106192018
H         6.72924435172353    0.89768177961805   16.78911055859716
H         7.01381722296063    2.64643641363003   16.63329881472640
C         5.46789320457345    1.88433527294250   15.32326317822014
H         5.18068957756284    2.90819901794909   15.07548310442153
H         4.55155486393067    1.29587652506729   15.41308705603614
C         6.30340130902157    1.29491797734089   14.20019671130890
H         5.79011034435219    1.36302755188205   13.24211563566213
H         6.55986509182219    0.25446371589256   14.40259412972465
C         7.42012311813452    3.55765683084497   13.34131678329523
C         8.03812567800532    2.86459869486426   19.52116834283999
S         5.31021605712629    5.21645702655263   16.33447893966191
S         5.34420012870619    7.50532939975570   22.44019258757176
N         8.61353754445575    6.65190616540018   16.79186993154209
N         7.89461291498137    7.49757867410245   18.66266431904918
N         5.17261917882854    7.84247232702889   17.30126050502527
N         6.20041599626395    5.07198705246771   23.58401615631717
C         7.80513818676686    6.42602640590420   17.84686522313028
C         9.24285051685204    7.86868451990340   16.93271986796872
C        10.16006732485316    8.54265503564225   16.14140815713979
H        10.54018075641902    8.11625157646617   15.22711823338959
C        10.57154965696307    9.78759021883208   16.57549609557437
H        11.28524008791782   10.34328168835109   15.98704888956073
C        10.08130347127387   10.34859501199990   17.75356739264506
H        10.42100845263888   11.32960797954559   18.04837231830957
C         9.17201923282396    9.68073194840121   18.55078782457985
H         8.79221331069976   10.12927432405070   19.45496654660085
C         8.76515653390882    8.42291923295338   18.13137300609077
C         8.70571317282617    5.82549786855613   15.60472547341517
H         7.73144578131835    5.33603444065812   15.46342331846397
H         8.88322544955323    6.47688916159828   14.74665751764658
C         9.77602416152709    4.77213007433168   15.71555062077937
C        10.89304961375728    4.76108687512446   14.89505743324336
H        11.02130852307392    5.52957967632468   14.14620983748803
C        11.83536137086549    3.75435021008466   15.02498901280083
H        12.70206862091491    3.74759074645192   14.38045455353859
C        11.67040463667426    2.75933607916111   15.97355817307509
H        12.40840967117936    1.97691638499014   16.06840774247843
C        10.55679857130658    2.76583509279481   16.79805674930024
H        10.40853280435397    1.99546918910730   17.53973397731487
C         9.61852550505615    3.76995944104484   16.66218721392073
H         8.73306433486475    3.78390749807682   17.30405156616125
C         7.05565313985631    7.73790558776786   19.80995010226175
H         6.56026615867145    8.70458340759144   19.66616970967999
H         6.28086243350295    6.95525543446051   19.82607686007053
C         7.82263238419727    7.72544421556124   21.13624119871953
H         8.10877068049181    6.70256708288983   21.38921011405909
H         8.73953863098790    8.31275570304979   21.04477715277506
C         6.98622902735096    8.32077196057900   22.25551432610133
H         7.49737209376462    8.25465376479627   23.21488540729915
H         6.73279672107301    9.36117753124974   22.04906058871661
C         5.86163704947796    6.06143991644765   23.11409146439990
C         5.25896194811264    6.75149001170496   16.92783853194060

