72
CSD_code = NONSUG | q = 0 | S = 0 | Stoichiometry = C27H43ClTi | MND = 12
Ti        3.37541881500835    2.69539199535091    3.33775006165198
Cl        4.92266858774677    4.32057128632267    2.97535540509586
C         3.89490078430577    0.33896447513387    3.08923409404821
C         3.55609399727781    0.58222605883771    4.44627060246655
C         4.54351128916164    1.45126830728465    5.00170171849682
C         5.48038780452304    1.74488093161564    3.97901962120117
C         5.05172770290441    1.10989417026388    2.78529998140289
C         5.85379091264174    1.09701122591898    1.51679692144695
H         6.08742745391875    2.11521891196136    1.19932472575627
H         5.32381309498381    0.59336378233244    0.71090133256549
H         6.79793823579955    0.57083819217595    1.67694311959762
C         6.82557844395370    2.36925010957886    4.19741925999951
H         7.50310505810610    1.61674053728480    4.61145818746608
H         6.77414011503846    3.20128352172177    4.89811830680995
H         7.24671583992846    2.73720269203150    3.26505694803007
C         4.79664157905346    1.66587189824301    6.46344913366745
H         5.37334200571866    0.82309210977343    6.85488227302808
H         3.86787021609305    1.73424568736688    7.02093417255743
H         5.37183521556694    2.57326172323705    6.63595873469285
C         2.60518415535510   -0.26742497927267    5.23714470210012
H         3.04875564260619   -1.25600813722239    5.38860157461114
H         1.65651235224481   -0.40904059206231    4.72098936760684
H         2.41310441636038    0.16410973146056    6.21590715843160
C         3.43487802612802   -0.88718216194020    2.35586610398180
H         3.77410944359081   -0.90321899744580    1.32475453222240
H         2.35426652845589   -1.01064606500188    2.37789753952204
H         3.86646956348303   -1.75918215661723    2.85714805288581
C         2.21770701029254    2.12828383716454    1.27105147841455
C         1.28897645331853    2.20380411403047    2.34996757284001
C         1.24137348936361    3.56095297857253    2.79137239605902
C         2.17653747615939    4.30049639591524    2.02112159856185
C         2.78822620825107    3.41223650134037    1.09963443326977
C         3.69399492882413    3.83078069341048   -0.01851462800128
H         4.18127652797885    2.97246903542544   -0.47657644698254
H         4.45943763582587    4.51917447162158    0.33898410502067
H         3.11425838452928    4.34527179026567   -0.78939401865345
C         2.29932846908034    5.79323276646119    1.98617773376943
H         1.71321909074189    6.18583542001889    1.15106386508054
H         3.33468102598002    6.10005237035810    1.84569082432608
H         1.92387318854288    6.24141601555157    2.90428264933312
C         0.11000435353974    4.18102827179695    3.55563331629687
H         0.44132454952318    5.04302686837195    4.12981654280852
H        -0.35615829287655    3.47012640493364    4.23142175884158
H        -0.64833957009442    4.51860419872006    2.84280259669385
C         0.23840723222837    1.18256660546438    2.68189199781059
H        -0.03772675392909    1.22047065582071    3.73506393407825
H         0.56501027290561    0.17122904186235    2.44835102748472
H        -0.66397089706945    1.38249857052159    2.09689897317104
C         2.23953330246501    1.08254780957003    0.19346213442793
H         1.72127252452387    1.48704193312708   -0.68061840072753
H         1.71934317957885    0.17773321033127    0.49208237706065
H         3.24829149944924    0.82464550142110   -0.12341135989257
C         2.69688829807977    3.50213366813321    5.14524642699312
C         1.70416632863695    2.92875123310787    5.82224957611331
H         1.27122130834771    2.03080276993743    5.38757719990986
C         1.00659247198452    3.28942407060598    7.13962382363151
C        -0.13799579855070    2.28775802289163    7.35541070385312
H        -0.65814244950113    2.50035142673016    8.28768726372943
H         0.24043243109559    1.26807788425668    7.40442340119405
H        -0.86239135037939    2.34684546963395    6.54480907084359
C         0.38518474592578    4.69295462745567    7.11455494554382
H         1.12470915735982    5.46452129118093    6.92963104305949
H        -0.08961811029728    4.90109030586223    8.07270656019749
H        -0.37586852788889    4.75780452807020    6.34130257203925
C         1.95515088253719    3.16911390831440    8.34142441527986
H         2.83676649147038    3.79224652773336    8.22715825730586
H         2.27890408647197    2.13752515855828    8.46937785680820
H         1.43968599956764    3.47063939772627    9.25246716399235
C         3.40078024882096    4.75452700172966    5.60654469280581
H         3.09985163333215    5.06651368379573    6.60626863242418
H         3.19423268948236    5.57419842578035    4.91314155283643
H         4.48258089437377    4.60491087809889    5.61345474896993

