23
CSD_code = NONTIT | q = 0 | S = 0 | Stoichiometry = C6H6Cl4I2N4Ti | MND = 6
Ti        3.59055969988476   -4.01541591107039    4.80300324422116
I         5.07819837018583    0.12480241286371    9.30207141775738
Cl        3.58696970931861   -5.40069390315442    6.46258730065831
Cl        5.85632388426575   -3.78298572642402    4.79438377737642
N         3.55452933747434   -2.39992163360469    6.24127186523882
N         2.49057341883682   -2.31740959669314    7.04605507127730
C         2.73603207225374   -1.55050531123252    8.11221463498818
C         4.04257606657915   -1.11430969217111    7.98984836073843
C         4.51532736614933   -1.67278969012371    6.80084982945529
H         1.63504520865008   -2.80098945876177    6.74807251479530
H         2.01170344418786   -1.35936193530337    8.87829958811919
H         5.48916101223230   -1.58113366805808    6.35326514837359
Cl        3.59333463281062   -5.40509676592438    3.14735300503475
Cl        1.32561752475994   -3.78011088250173    4.81395362332790
N         3.62815996434237   -2.40317352786086    3.36184854095887
N         4.69573443315762   -2.31586107945969    2.56235093135836
C         4.45351109565245   -1.54646397747825    1.49727611850063
C         3.14533892162719   -1.11378475869749    1.61464231170712
I         2.11325075517445    0.12732594701812    0.30148898216297
C         2.66826094418429   -1.67683962357005    2.79978333117697
H         1.69210362070657   -1.58900536525796    3.24293890512390
H         5.18109502752688   -1.35123471402900    0.73531653265552
H         5.55089349003729   -2.79854113850404    2.86312496499154

