75
CSD_code = NONVOB | q = 0 | S = 0 | Stoichiometry = C20H48N4Si2Zr | MND = 4
Zr       -2.22258551887843    7.82195360753447    3.92956633084689
Si       -1.05938404634405    5.31140095527603    3.30203643793866
N        -2.78283261527404    5.32117980053764    2.89303228519494
N        -0.49788105598266    6.88838397744927    3.05179488580620
C        -2.92398011592359    9.31934931724220    2.38258800111953
C        -0.16408943718953    3.70636342538906    2.79520773856372
C        -3.47289652210334    5.18848779568829    1.63720102051406
C        -4.87138593851283    5.80931516980756    1.76352784195452
C        -3.60867576876753    3.71266568058555    1.21855415633279
C        -2.69730890158009    5.95680677245445    0.55841257517692
C         0.68235344233003    7.42304468191652    2.41849749549149
C         1.93153375884660    6.56467954390769    2.67755888398223
C         0.49272004874547    7.54557158585627    0.89266585544347
C         0.92723018780796    8.83475339302441    2.99214098493643
H        -3.12519898989121   10.30756940479692    2.82828010627271
H        -2.18775927772463    9.50030864275839    1.58202903948595
H        -3.85657852520562    9.02067413361103    1.87550545398360
H         0.77333142857862    3.60714298061171    3.32984716617720
H        -0.76405196174735    2.82694268709693    2.99994670153714
H         0.06433437497346    3.72047731556783    1.73532134989180
H        -5.36609175460290    5.85364842216458    0.79505970885914
H        -5.47942573793881    5.21380129542846    2.43912314241970
H        -4.77226047904517    6.81623048722055    2.17779526959482
H        -2.62305406262277    3.27067523159981    1.10000347962718
H        -4.14344339603664    3.16042174034911    1.98699427065852
H        -4.15000610188607    3.62423185735201    0.27901263262164
H        -2.52906194322157    6.97849725113454    0.91024917354333
H        -1.73412040053610    5.48282933750862    0.39113675232733
H        -3.24675064378707    5.97276801563897   -0.38093673911439
H         2.80818017020018    7.02060564775272    2.22244535819804
H         2.10148611819054    6.46642017439379    3.74566750610049
H         1.79360091639283    5.57398758308855    2.25630962340970
H        -0.39120826434321    8.14264832949552    0.67603896698430
H         1.35948206924043    8.01672649450444    0.43391398052878
H         0.36274677231221    6.55826526537236    0.45783590833007
H         1.78251544363764    9.30246774444821    2.50698478694214
H         0.03776056932364    9.45323396672818    2.83419819904223
H         1.12749390145537    8.76731407016804    4.06168469638211
Si       -3.38555451624390    5.31145587359707    4.55763868548086
N        -1.66209591571147    5.32133351271811    4.96666510438093
C        -0.97200111593577    5.18856162898078    6.22247327764091
C         0.42645659791724    5.80946478515190    6.09612627316188
H         0.92110985147184    5.85395170217528    7.06461175741515
H         1.03457935691876    5.21391252347135    5.42063741682072
H         0.32729250864553    6.81631752775475    5.68173644866266
C        -0.83609319399508    3.71271589235932    6.64099684092075
H        -1.82167351393002    3.27063425458860    6.75954754326299
H        -0.30128076550220    3.16056121309792    5.87252300098197
H        -0.29474284106548    3.62429176393145    7.58052714685949
C        -1.74763804377228    5.95671206128898    7.30134360706953
H        -1.91611342830719    6.97836430671869    6.94955194105688
H        -2.71071961411978    5.48254811565170    7.46870965635397
H        -1.19811261966959    5.97275891158747    8.24064023444937
N        -3.94725623221423    6.88845660161371    4.80741011943746
C        -1.52117409862540    9.31890361679836    5.47712284051962
H        -1.31904176101265   10.30699513963253    5.03163299211583
H        -2.25792107867724    9.50014829737517    6.27708503472436
H        -0.58918912461951    9.01957189557987    5.98489844588898
C        -5.12736069816287    7.42306210650017    5.44101023853363
C        -6.37658527595788    6.56475657371648    5.18196117970449
H        -7.25316114586507    7.02058701963818    5.63730317074507
H        -6.54669120909117    6.46674010480263    4.11385331564219
H        -6.23858812129969    5.57396957837848    5.60296196696787
C        -4.93749645963646    7.54530040189311    6.96683044437227
H        -4.05354657215307    8.14235389543881    7.18341249987743
H        -5.80418519282527    8.01636434049306    7.42581266014525
H        -4.80742780927092    6.55792163147457    7.40146069909524
C        -5.37235531462271    8.83486182976791    4.86764827301737
H        -6.22721645799538    9.30268332425014    5.35344901310182
H        -4.48266439927036    9.45316000562800    5.02503815756176
H        -5.57337388051530    8.76759943292240    3.79823895363907
C        -4.28075279585277    3.70643779971784    5.06471482645641
H        -5.21806612017869    3.60695733267707    4.52993308682126
H        -3.68063620196119    2.82704534681176    4.86030274139095
H        -4.50936053977847    3.72079586635759    6.12455937861846

