74
CSD_code = NONWUK | q = 1 | S = 0 | Stoichiometry = C25H42NO3P2Pd(1+) | MND = 4
C        -2.49216709912102    1.44771631582697   10.17282713372824
H        -2.08653868420697    0.84177829059567   10.98070521371349
H        -1.65347237362165    1.89877352022752    9.63564362868700
H        -3.01815904549740    0.77870138974348    9.48774389004189
C        -4.88649827174178    2.86333397426557    7.95663521377983
C        -5.91693811761392    2.81235334351172    7.02363656917968
H        -5.75970489575521    3.20783900055602    6.03286521236865
C        -7.12834085510551    2.24821465747215    7.38145411750371
H        -7.94344419315054    2.20360758752518    6.67614282387564
C        -7.26948341316798    1.73008440947985    8.65697951892013
H        -8.19253689185553    1.26800724351250    8.96789465772887
C        -6.20385851500480    1.81084526637020    9.54538071111142
C        -3.54876890109613    3.41813198549650    7.57855051504172
H        -2.95189847175942    3.61780878333346    8.47573076253016
H        -3.66162997270402    4.32915614308851    6.99455269814310
H        -3.01993854573808    2.68908864464037    6.96329316318544
C        -6.31245665220340    1.26386277829466   10.93402610711849
H        -5.32863602929729    0.90718344515000   11.27703829604571
H        -7.02905921461337    0.44679210899652   10.97180501588358
H        -6.66265289717281    2.05587763385998   11.60337234440366
C        -3.07145963605211    6.57086449367141    9.31552058906311
H        -3.87809123830064    7.00590123317917    8.71826579548720
H        -2.30720201651509    6.16610130710370    8.64605939964079
C        -2.47836190663201    7.62676379231809   10.22748033060333
H        -3.25609768444988    8.07722582729219   10.83839856167784
H        -2.01514446657518    8.40201801653984    9.62283501385195
H        -1.72245021127795    7.19315658392265   10.87742163666091
C        -6.86241805739432    6.62844705518865   10.41118834929943
H        -7.37558730702657    7.57478646861098   10.59500279532209
H        -7.34982507266900    5.83157427437601   10.97936797017478
C        -6.85502138780007    6.28329729046484    8.93297526233305
H        -6.39074020968551    7.07962801729288    8.35573820508319
H        -7.87515568505744    6.14765015076027    8.58484040446154
H        -6.30275133095679    5.35756743573330    8.77539034336063
C        -3.75268585042843    5.97285605657354   12.74739970314836
C        -4.02397319463393    7.18843513017462   13.36112281541350
H        -4.71388989514055    7.87232739625362   12.89203457806786
C        -3.42709227752711    7.51752702751202   14.56074745901314
H        -3.64081710872876    8.46827728276936   15.02500291734677
C        -2.56533875179977    6.62238938849002   15.18917792465646
C        -2.31847838680127    5.40030787503286   14.57865103120802
H        -1.67818066085319    4.69458105440549   15.08361773879519
C        -2.88775081046364    5.06182892258492   13.35283957936722
C        -1.93007108975383    6.97573198414262   16.49416802183751
H        -1.24452937364972    7.81175187704293   16.36083252084192
H        -1.37650768983683    6.13667908339574   16.90631766710704
H        -2.68664264315584    7.28532913108123   17.21249964811106
C        -3.00871209570886    2.32786914132187   14.04642667685641
H        -2.43733807958663    2.62272455108540   14.93242881743011
C        -4.50251272150135    2.54178069468231   14.28959559696101
H        -5.04622752556337    2.40758695648859   13.34800545434357
H        -4.70463181158744    3.54428242833525   14.66477539636584
H        -4.87938708344889    1.82224401372874   15.01332597425327
C        -2.73453535009954    0.86492021418908   13.72210600436444
H        -3.01624565882498    0.23777639692194   14.56563408736388
H        -1.68129061001315    0.69278495508476   13.51011916470899
H        -3.32677623242311    0.56198428672482   12.85665050788959
C        -0.72440049168548    3.35343794450783   12.33655414464811
H        -0.55921119698324    2.33882141334917   11.95505415939735
C         0.18657834681498    3.57110259828942   13.53767419031696
H         1.21055927678344    3.33825106593211   13.25040386073126
H        -0.07974789163139    2.91983411468464   14.36705009922262
H         0.16586368425437    4.60647977212553   13.86826584773214
C        -0.41801880781306    4.34778510302988   11.21653083976374
H        -0.47385532412143    5.36809880949887   11.59442828108892
H        -1.13981784129562    4.23215383819087   10.40125219353078
H         0.58251159143777    4.18592830104604   10.82171692783049
N        -5.04931521240094    2.38371669735206    9.19116085876858
O        -5.44153467687946    4.30131175738358   11.31388217617904
O        -3.58204327375993    5.43051064375771   10.01666974385333
O        -5.53808249087537    6.81485734305152   10.91613621274723
P        -4.63850467070846    5.53581208690885   11.23161590384515
P        -2.56529480962880    3.41863618625784   12.60805420575085
Pd       -3.78858205905222    2.89674800825373   10.78410881904821

