24
CSD_code = NONWES | q = 0 | S = 0 | Stoichiometry = C6H12Cl2OPdS2 | MND = 4
Pd       -1.21389200442363    4.84611828794533    3.40100251671279
Cl       -1.28527424362598    5.92491845778284    1.43773756555260
Cl       -3.36940597416128    4.26956719964489    3.19812844538309
S         1.08107450237463    5.32594758810324    3.59176862952323
S        -1.13705091798585    3.68693154026446    5.40815353666268
O         0.01997005217760    2.60963905000631    2.74505645538438
C         1.66356290378031    4.27152330215403    5.00157666891931
C         0.58646480426918    3.91981096986975    6.02119209642005
C        -1.18360158566491    1.98679643063211    4.72823212714994
C        -0.06557220696872    1.62809208720526    3.75525786244592
C         1.28959669020414    2.85182771595388    2.17643506129463
C         1.58419876070812    4.35507884222051    2.11924287574887
H         2.11853178740830    3.38455037855165    4.57101892116181
H         2.44605842783093    4.85068460102148    5.49439526493668
H         0.46733443306141    4.74199000528821    6.72844363793924
H         0.85715685486101    3.02028542661661    6.57524006556937
H        -1.19272911473688    1.28853420802321    5.56482815782090
H        -2.14725653231840    1.97280388108821    4.21119445026703
H        -0.29924436196823    0.64998766892350    3.30658716337080
H         0.88935492742421    1.53323084188363    4.29359221306736
H         2.07078932466081    2.32300487710208    2.74057341786440
H         1.30229051526709    2.46680709981033    1.14755367857467
H         0.98949315875991    4.82627987391153    1.32954889771163
H         2.64694979906676    4.52458966599686    1.94634029051863

