81
CSD_code = NONWET | q = 0 | S = 0 | Stoichiometry = C24H51Cl2NOsP2 | MND = 7
Os        4.02684471355066    4.00803829223391    1.94720577053643
H         3.12440188415412    3.20851443611809    0.98021372185565
H         2.87903897596104    4.67823583908449    1.15991493895831
Cl        5.94341835848737    4.27569313291591    3.46566292322815
Cl        5.56178654714843    2.87704236018929    0.41099726481885
P         3.69537091560765    1.80294384938315    3.01387914605364
P         4.95798429825720    6.00801285057385    0.82799810550714
N         3.47148981821918    5.19703493351712    4.61424462421167
H         4.49887612208872    5.05849980276851    4.62391488243435
C         2.88217013412507    4.84127233579798    3.44124712844890
C         1.47743423008614    5.04260790381753    3.44092248042037
H         0.91937126661794    4.79980914557185    2.54946296310269
C         0.80922134189147    5.52298029559919    4.53824926001356
H        -0.26256515184429    5.65602126931458    4.50949377798144
C         1.50927709809539    5.84500930330939    5.71107990645450
H         0.99476423564833    6.22072197818173    6.58010071958186
C         2.86939623208897    5.67233233965437    5.71818317884607
C         3.75252172391219    5.98877816529031    6.87808851082012
H         4.38926578271067    6.83996020222659    6.63812696206360
H         4.40253935741690    5.14377522907657    7.09885315770199
H         3.16549749389877    6.22956851657680    7.75944937927087
C         2.23997357046198    0.86103441265586    2.29293881022146
H         2.07601108781872   -0.01784859052264    2.92289262084301
C         2.50931999575216    0.39524704094964    0.86384843579390
H         1.57210868092805    0.11887056213936    0.38295432139021
H         3.16681616245859   -0.46998941259756    0.83890596394589
H         2.96629931046729    1.19260452474128    0.27800569301002
C         0.98336792503032    1.72696239630873    2.33209556870107
H         1.07161108150134    2.53809075162598    1.61316687323834
H         0.82570255597325    2.16158713351237    3.31673925843782
H         0.10968502633754    1.12960874639634    2.07401843086284
C         5.05007008036137    0.52628271742560    2.76770628169529
H         5.04506704310986    0.41931437305619    1.67456014057784
C         6.44870170442463    1.00761070344419    3.14308673439643
H         6.55545812053434    1.18804030738022    4.20893907078857
H         6.69473831758012    1.91708859829406    2.60464816706714
H         7.17640219330598    0.25133896238836    2.84933792290522
C         4.79180395244048   -0.83911498948905    3.40198558512440
H         5.52493876359797   -1.54652973618114    3.01468824357174
H         3.80377310070855   -1.23013266150232    3.17360176043612
H         4.91776621068680   -0.79743754613835    4.48152625326410
C         3.21550783268746    1.83692370140802    4.84410511040875
H         2.58522180207589    2.73432155908719    4.90701098654587
C         2.38906036836723    0.67397691617015    5.39148650925046
H         2.90006382608715   -0.27742068059767    5.28443045351495
H         1.41413951317126    0.60560447329481    4.91755948898833
H         2.22430335525064    0.84401903688356    6.45595168345072
C         4.43867092091179    2.05944942267849    5.73205977195794
H         4.12855929999635    2.42746659602475    6.71057432905357
H         5.11922576607968    2.78240014182091    5.28853961186905
H         4.97604073703189    1.12637723357258    5.88436151640646
C         6.72692926495593    6.49772267927979    1.26908222616446
H         6.74320611660564    6.36130892918623    2.35797916262898
C         7.73018984735278    5.51305943904345    0.66972914141684
H         7.91513137027848    5.73051245827793   -0.38098146397833
H         7.37350615234653    4.48840864166554    0.74899562372065
H         8.67840745749891    5.58318427716732    1.20156416063192
C         7.19458664510904    7.92612298413273    0.99007279593561
H         8.17005769973020    8.05542601639221    1.45964519994528
H         6.53032743789669    8.68119596019289    1.40022813086922
H         7.32467748207673    8.10880477594518   -0.07343625901764
C         4.99378681781138    5.87151327932246   -1.04450333277814
H         5.90091662603013    5.28370460499548   -1.22723734263856
C         3.82353827937094    5.06110225170643   -1.59900893193202
H         2.86337854878518    5.50645405928619   -1.35083106968712
H         3.84863517263371    4.04866326345185   -1.20669783667276
H         3.90641099608379    5.00482192609010   -2.68371057349152
C         5.10479596093116    7.19511028622093   -1.79873313487180
H         5.30002074624514    6.98452564823414   -2.85000226163824
H         5.91472706968443    7.81621742756238   -1.43086741526940
H         4.17961551053917    7.76342168423892   -1.74220787185939
C         4.04785716614094    7.61913348762126    1.15079843927109
H         4.55997062212562    8.38752680324299    0.56386230188296
C         2.58681946959757    7.57233059698727    0.71897183812933
H         2.06798597322731    6.76104449672915    1.22646663744077
H         2.48631768524124    7.43026610117594   -0.35295176636338
H         2.09747569055036    8.50982939659411    0.98282507156452
C         4.11730400872245    7.98258604510149    2.63290874566770
H         3.80073934916238    9.01473410891785    2.78229703260738
H         5.12097017188691    7.86999319918222    3.03495830611566
H         3.44830097810482    7.33967629664101    3.19887004618212

