43
CSD_code = NONWIW | q = 1 | S = 0 | Stoichiometry = C12H24CuO2S4(1+) | MND = 4
Cu       -0.72898618060723    0.42396034490192    3.38247820449667
S        -1.32527724697060    0.07291256418660    5.60892819939355
S         1.38172635878506   -0.79746511853901    3.54694510826099
S        -1.72924658687245    0.28449433750049    1.28178061432793
S         0.27970994916539    2.61394283757180    2.97706439742605
O        -0.97910586206314   -2.79623970654950    4.43177833328106
O        -2.89259492104493    2.89596061227561    2.52966272680843
C         0.21814165488917   -0.76306040327595    6.15576793323075
C         1.44717209596181   -0.42440958597204    5.33531123290165
C         1.19216917241338   -2.62136314613337    3.46218370665052
C        -0.25066765980148   -3.06205830793524    3.25287289909384
C        -2.25891988933596   -2.22505229533782    4.31018257762426
C        -2.49476527612841   -1.33603855576055    5.52175133479682
C        -1.02123372052073    1.82021177361761    0.56046874520337
C         0.28678947587481    2.26886119177070    1.18198043935281
C        -0.88913664119893    4.01566745145475    3.17421362911493
C        -2.28164313957792    3.57450835404024    3.60546720908394
C        -3.59745749394266    1.70975156627669    2.80360732576395
C        -3.46196860066035    0.79292150904980    1.59741334707057
H         0.38717526691600   -0.44374502565653    7.18524386544505
H         0.00919765616953   -1.83011665967659    6.13033053731559
H         2.30635162727049   -0.95770406666435    5.74505385500694
H         1.65368344851134    0.64694220851681    5.35909488049046
H         1.80672372171782   -2.93587980289009    2.62080259153505
H         1.59532687769111   -3.03474674966483    4.38412636496324
H        -0.27080452323668   -4.13914222420454    3.04065009624429
H        -0.68148504280297   -2.52741278442080    2.39663079053782
H        -2.32471313703387   -1.62448997166965    3.38792090536541
H        -3.03249945879514   -3.00635977774507    4.27537401384405
H        -2.37761190753114   -1.89989796003023    6.44516911883979
H        -3.48942454546917   -0.89463320882065    5.49095261252676
H        -0.85038596960255    1.60781996358713   -0.49598007447280
H        -1.78858088847928    2.58405733696718    0.66355514884591
H         0.62582813841110    3.17648201780167    0.68020826497079
H         1.05564661420248    1.50126976893286    1.07873916766807
H        -0.44548309230306    4.65575985968429    3.93444347288930
H        -0.92564665143689    4.54623436171868    2.22524517525996
H        -2.87455922588057    4.46029942445058    3.86893007928287
H        -2.20877194273987    2.92573072970486    4.48776277021263
H        -3.18260631667051    1.21501539616522    3.69726550913062
H        -4.66192389372488    1.92151197856093    2.98285805958354
H        -3.81454139282898    1.28647831507024    0.69382037895652
H        -4.01980085072074   -0.12987855285870    1.74694445167563

