75
CSD_code = NONWAO | q = 0 | S = 0 | Stoichiometry = C20H48HfN4Si2 | MND = 4
Hf       -2.20113239502812    1.42320990336866    3.88893524898101
Si       -1.04278951268527    3.91366463027695    3.26552325515219
N        -1.63554228057430    3.84986712096995    4.93845387207978
N        -0.44910870448456    2.35393817334076    3.00384475322899
C        -2.98554318252763    0.01703396922121    2.26946204965440
C        -0.14557187529290    5.50838837161981    2.76376806159157
C        -0.95262528827134    4.18447028527347    6.16950782145325
C        -1.68620754260574    3.52363420516293    7.34347575515979
C         0.47940583991439    3.63583511265176    6.11273631462552
C        -0.89388533557670    5.70378856612541    6.40557396401094
C         0.72674692394144    1.85907145738890    2.32406317824547
C         0.56966575413337    1.94618585259495    0.79532360583512
C         0.89858363369427    0.38057240731277    2.72082669814371
C         1.99647376652066    2.62562004012177    2.72560886207823
H        -3.98033564589326    0.27999280473841    1.88920472963832
H        -3.07802056496801   -1.01100551903922    2.64868105980193
H        -2.33942221717630   -0.05511213290805    1.38475053983330
H        -0.73268780013724    6.39529840667790    2.97087078440903
H         0.07946975946329    5.48889481511476    1.70383804139413
H         0.79496437438741    5.59425203906563    3.29423991577509
H        -1.77672145748772    2.45480605701733    7.15392135460695
H        -2.68365556716938    3.94239820418393    7.43942650874676
H        -1.14807073825462    3.68264406588983    8.27537655780833
H         0.44945116704123    2.57958678529203    5.84795100228018
H         0.97703604760367    3.75560301394649    7.07270191023979
H         1.04993961782454    4.16380209796675    5.35408469330104
H        -1.89852171935484    6.10642039205545    6.49845354796131
H        -0.40022004219756    6.19095287612840    5.56919793681388
H        -0.34251377783457    5.92743750898177    7.31646507020456
H         0.47672175382387    2.98629274798449    0.49565715646360
H        -0.32490756997717    1.41348084588983    0.48371768148969
H         1.43262931465467    1.51389378268696    0.29382818833802
H        -0.01902109810547   -0.16914645982616    2.49860713766823
H         1.10087309012708    0.30857151064545    3.78736445972801
H         1.72708537797477   -0.06954400650442    2.17767584770199
H         1.91340294455300    3.66435833480273    2.42210429617624
H         2.87155025236906    2.18964079587653    2.24879012658129
H         2.12706145747811    2.58838232194744    3.80294349893751
Si       -3.35893611391782    3.91384059295301    4.51139092246834
N        -2.76613951495001    3.84975762329065    2.83846833880921
C        -3.44898031598251    4.18420380030732    1.60733135767854
C        -2.71494178515670    3.52389098228778    0.43335218803689
H        -2.62426626291759    2.45502429844603    0.62259875326442
H        -1.71755832580670    3.94290549440199    0.33775248580735
H        -3.25287569073052    3.68304497677773   -0.49863947602461
C        -4.88073775049817    3.63484019512170    1.66386022864127
H        -4.85028889351049    2.57858283230073    1.92857232145359
H        -5.37828384719910    3.75446806332751    0.70383441992471
H        -5.45160933587837    4.16247238534619    2.42249045814984
C        -3.50835659269160    5.70352881133190    1.37144365239945
H        -2.50388884369461    6.10666714819643    1.27889060670346
H        -4.00248394076156    6.19032673529695    2.20775299476700
H        -4.05959847920238    5.92704410068381    0.46044225946296
N        -3.95285286911522    2.35427213845210    4.77331648855128
C        -1.41485560688253    0.01708893401087    5.50731988678571
H        -0.42146851612479    0.28091700080450    5.89089734044244
H        -1.32095957930751   -1.01040267654633    5.12852308928118
H        -2.06323241775906   -0.05604384665290    6.39017296340077
C        -5.12846485864721    1.85938996893931    5.45339919222442
C        -4.97018326525276    1.94520237571675    6.98207390298623
H        -4.87653868321285    2.98502836928353    7.28248929287140
H        -4.07562873309204    1.41182251644208    7.29258246456436
H        -5.83300165767943    1.51290061049681    7.48379707647427
C        -5.30110214081991    0.38128680452762    5.05551270692472
H        -4.38330537037287   -0.16879508739671    5.27602899838126
H        -5.50478955407573    0.31021226530196    3.98919803779306
H        -6.12902440399386   -0.06906509137460    5.59933711786651
C        -6.39798703525588    2.62689559161677    5.05315141927419
H        -6.31432770664643    3.66528716456038    5.35766689312211
H        -7.27298574123765    2.19075478465013    5.52994279537406
H        -6.52904561497170    2.59077377653643    3.97582813631644
C        -4.25596982743320    5.50872167212486    5.01286106795470
H        -3.66888474058433    6.39558314258039    4.80544417348554
H        -4.48080182155897    5.48940763571379    6.07283521856993
H        -5.19660092297789    5.59438252609517    4.48252473967626

