57
CSD_code = NONWAP | q = 1 | S = 0 | Stoichiometry = C24H29IIrN2(1+) | MND = 8
Ir        1.84293965167799    8.69046090739544    4.45734833992270
H         0.41904442410869    8.76920960603215    4.96339661619873
C         2.35211337986851    6.22870412970995    4.25648124234525
H         2.55576354561722    6.13940800272472    3.19434440056541
C         1.05879917062746    6.30888158611489    4.64155708035846
H         0.28767002959870    6.26998621851076    3.87874867294289
C         0.54664376002250    6.17621260894308    6.04913071323722
H         0.51450470435687    5.11198856180799    6.30315570122003
H        -0.48173059651638    6.53905650990418    6.06771255266343
C         1.35658209037117    6.93133826200841    7.12126611622040
H         0.68195840490070    7.15532747211821    7.94831304503902
H         2.14621178537529    6.29079239602731    7.51809554962894
C         1.99516656588282    8.22670420812332    6.66607531628038
H         1.64594603704582    9.10729913240774    7.19986298143212
C         3.26728708292114    8.29615934659554    6.11467779471689
H         3.82610035157622    9.21839221054581    6.27011040181472
C         4.15984997853648    7.11194918426408    5.85412118469729
H         4.58856808762192    6.80583997601604    6.81575022827586
H         4.99931522424025    7.44317350873687    5.23748405247676
C         3.48582942752649    5.89438445447024    5.19161954302808
H         4.24830111595977    5.34178948568166    4.63787176271895
H         3.10385473309187    5.21859663929407    5.95807974934534
C         4.63361283039206    8.25217762608742    2.77423923827159
H         4.43881789954369    7.19356195122112    2.85663058146071
C         5.72880605758703    8.68747598849819    2.02232812041784
H         6.36531718772718    7.96169506725195    1.54311010778965
C         5.96489433180588   10.03440720854770    1.90829642779888
H         6.79860187958056   10.41431380189726    1.33796102551039
C         5.08458188410763   10.92813850583180    2.54152270226369
C         5.21373262068124   12.33828427640248    2.46304343551899
H         6.04266749260511   12.74531061349527    1.90444909035143
C         4.31584295981937   13.16857480731999    3.05589274493953
H         4.45068964206626   14.23165035335819    2.95383364816872
C         3.20997005440860   12.65434174120465    3.78388191453834
C         1.24265939865650   12.92828490706458    5.02423532456086
H         0.53635202066554   13.62348220773737    5.45335589641453
C         1.05308858929500   11.57588560573608    5.15304235285970
H         0.18148898839552   11.22867313224721    5.68358110718910
C         1.95164119717773   10.66962740165301    4.57361832949199
C         3.05764428006860   11.25813784430457    3.90201270685055
C         4.00627949892163   10.39217283848674    3.27499700560282
C         2.30815483391271   14.91028322101749    4.19275341722554
H         3.33207384791976   15.27446783095074    4.29035948336283
H         1.72193772304139   15.36122221125727    4.99585108848351
C         1.71236259469442   15.31682036918942    2.84065922903806
H         2.26500706333090   14.83741904557075    2.03019156299303
H         0.67955325662377   14.96619437276422    2.78647753126967
C         1.74498111244256   16.83279019495478    2.65423302164781
H         1.20836774478733   17.31195387547951    3.47525655533713
H         2.77909543328548   17.18249060044041    2.68412327674364
C         1.10964658804962   17.23752021087537    1.33021232679117
H         1.63489739678481   16.78015593797574    0.49527167671473
H         1.14776626506995   18.31623694300022    1.20937032539232
H         0.06896735356888   16.92547287825358    1.29320271876522
I         0.75182834531829    8.98154894412434    2.03040933003424
N         3.80467542908744    9.06362281218231    3.39174449195768
N         2.27727724417640   13.46685026616827    4.36294915912426

