86
CSD_code = NONXIZ | q = 0 | S = 0 | Stoichiometry = C31H44ClO6P3Pd | MND = 4
C         4.77570505703169    2.20809142194089    5.27399425645353
H         4.96463895076405    1.24512947547262    4.78486081061788
H         5.31780757424731    2.22166718525231    6.22396186422151
H         5.16889412089642    3.01093716489241    4.64358542079292
C        -1.87572587825061    4.23350234861234    6.33725450607897
H        -1.50290753860167    3.89802313406124    7.30840686655754
H        -2.96988592081931    4.20552579242232    6.33448855548768
C        -1.36651777411641    5.63575361155197    6.04982335012202
H        -0.28033811142011    5.64971096953903    6.10709161846163
H        -1.76520190832912    6.32744984619011    6.78722346775553
H        -1.67855090396009    5.95484825131315    5.05778067754218
C         1.00403852316825    3.89404593154695    3.42629299630523
H         2.08370301053704    3.94920827153513    3.66039291120640
H         0.49555328754718    4.72046726729173    3.93503031797901
C         0.76231219374752    3.95722146996605    1.93052380992043
H         1.23031587624845    3.10516703811285    1.44430795775603
H         1.18337907606172    4.87634940910006    1.53262211653401
H        -0.30511109004087    3.93271366411165    1.72418748744513
C        -0.44588162602950    0.81824140238112    5.56021321417312
C        -1.72090870995462    0.41043803449257    5.90665850520839
H        -2.49789901882751    1.14840038355095    6.03731706049712
C        -1.99124335315630   -0.93678525701550    6.08482649492302
H        -2.98672045143461   -1.25541939460009    6.35638721073161
C        -0.98127632819813   -1.87219108116137    5.93305011021176
H        -1.18817687133831   -2.92156845311007    6.08714702036264
C         0.29865958545803   -1.46619226085284    5.59462715620324
H         1.09350536125469   -2.19496212539335    5.49733551719396
C         0.57071532805298   -0.11802057275357    5.39722710246530
C         2.28989284598942    0.31015240189281    3.21584343171753
C         1.63422885641329   -0.71620998671166    2.54374655546385
H         1.05269277749390   -1.44241356694487    3.09442791247007
C         1.71184184500408   -0.80664463758145    1.16822258295449
H         1.18786698517676   -1.61361129732467    0.67771799974440
C         2.43760792059525    0.11350796832041    0.41292133086201
C         3.08254341787767    1.13893520746753    1.09537827478384
H         3.65186311044800    1.88151629782303    0.56020579130550
C         3.00522987272774    1.24062126001549    2.47334455595456
H         3.49751438401227    2.06108934760476    2.98782998319247
C         2.48092331361911   -0.02843840637878   -1.09984430716297
C         3.32807566758279    1.05630201096231   -1.77029579527288
H         2.92199833960750    2.04652480316282   -1.57773442465908
H         3.32985969784214    0.89916445453271   -2.84693579436055
H         4.35836172027863    1.01868427457291   -1.42449390566129
C         1.05065017424522    0.07224892852826   -1.64894304192293
H         0.41684253157497   -0.71717986090901   -1.25468555640379
H         1.06046723945226   -0.00866021175411   -2.73368812061666
H         0.61063114887058    1.02979590485852   -1.37813193941372
C         3.08260863759485   -1.39492090429497   -1.45739238168179
H         4.08640689980751   -1.48248244272090   -1.04679347774326
H         3.14138678444573   -1.50578564865356   -2.53789687324316
H         2.48089003339568   -2.21005887174327   -1.06516170134038
C         3.31367176255536   -0.77568548400610    5.65890256961916
C         3.96172803178527   -1.71009876137124    4.85831951637013
H         3.74062054102007   -1.75376675623101    3.80100868206064
C         4.89501777461998   -2.57301442941186    5.40873219625154
H         5.39118879921373   -3.29645713576843    4.77838020871929
C         5.20455562803515   -2.50054335069028    6.75688844902593
H         5.94570017059203   -3.16291166745203    7.17864783865562
C         4.56694455216103   -1.57038038956865    7.56160372270137
H         4.79864726557264   -1.49231912954486    8.61264842886370
C         3.62854916807109   -0.71234198678677    7.01552924034757
C         3.29593327101076    2.81558898514949    8.96295968338050
H         2.86025550792099    2.51422071428546    9.92283917171302
H         2.51606950997815    3.28009609076585    8.33923601360391
C         4.46484171677676    3.76052961050568    9.15588045659806
H         5.27167149170359    3.25815571355699    9.68411949478602
H         4.14132671509281    4.62674673817666    9.72609236959225
H         4.82073426347269    4.09604547738380    8.18394027062833
C         1.63577581583673   -0.96004409311640    9.97458902656880
H         0.73972760722868   -0.36464208257868    9.77136206549370
H         1.74935091804528   -1.09574477983543   11.05371732478427
C         1.52771180151159   -2.29706858591565    9.26114144712759
H         1.38961469122457   -2.12185456788698    8.19552169792102
H         0.67554602846255   -2.85255090770853    9.64383773964115
H         2.43228043193432   -2.88246149291339    9.40811040114320
Cl        3.39697877345741    4.74544489876182    6.03736054769991
O         0.77989242568740    3.23761705267692    6.45141914660125
O        -1.47341824632313    3.30992363665656    5.32640098137695
O         0.49116125517220    2.64226994775543    3.91693085397181
O         1.37137787747540    0.81768443442551    7.73022402840191
O         3.78964326365592    1.63566641545788    8.28859972711399
O         2.77801146765108   -0.23096686064757    9.56005918508872
P         2.22338925261463    0.53780742915023    5.02343135990272
P        -0.04482847563989    2.57951562965791    5.42424321427878
P         2.75232359364736    0.45564449943023    8.09462879289986
Pd        2.82253868430382    2.56530523484422    5.74413466495131

